<?xml version='1.0' encoding='UTF-8'?>
<routes>
  <person id="p1" depart="0">
    <ride from="28124696#0" to="-25415039#3" lines="taxi"/>
  </person>
  <person id="p2" depart="0">
    <ride from="28124693#0" to="-25415039#3" lines="taxi"/>
  </person>
  <person id="p3" depart="0">
    <ride from="268504689#2" to="-25415039#3" lines="taxi"/>
  </person>
  <person id="p4" depart="0">
    <ride from="-238136477" to="-25415039#3" lines="taxi"/>
  </person>
  <person id="p5" depart="0">
    <ride from="-28132131" to="-25415039#3" lines="taxi"/>
  </person>
  <person id="p6" depart="0">
    <ride from="289937319" to="-25415039#3" lines="taxi"/>
  </person>
  <person id="p7" depart="0">
    <ride from="67624333" to="-25415039#3" lines="taxi"/>
  </person>
  <person id="p8" depart="0">
    <ride from="103093870#1" to="-25415039#3" lines="taxi"/>
  </person>
  <person id="p9" depart="0">
    <ride from="25790390" to="-25415039#3" lines="taxi"/>
  </person>
  <person id="p10" depart="0">
    <ride from="132619396#0" to="-25415039#3" lines="taxi"/>
  </person>
  <person id="p11" depart="0">
    <ride from="-38128295#0" to="-25415039#3" lines="taxi"/>
  </person>
  <person id="p12" depart="0">
    <ride from="1361425836#1" to="-25415039#3" lines="taxi"/>
  </person>
  <person id="p13" depart="0">
    <ride from="-60702646" to="-25415039#3" lines="taxi"/>
  </person>
  <person id="p14" depart="0">
    <ride from="-25807021#2" to="-25415039#3" lines="taxi"/>
  </person>
  <person id="p15" depart="0">
    <ride from="-25593394#0" to="-25415039#3" lines="taxi"/>
  </person>
  <person id="p16" depart="0">
    <ride from="-25727611#1" to="-25415039#3" lines="taxi"/>
  </person>
  <person id="p17" depart="0">
    <ride from="-661814892" to="-25415039#3" lines="taxi"/>
  </person>
  <person id="p18" depart="0">
    <ride from="238136480#1" to="-25415039#3" lines="taxi"/>
  </person>
  <person id="p19" depart="0">
    <ride from="25593376#3" to="-25415039#3" lines="taxi"/>
  </person>
  <person id="p20" depart="0">
    <ride from="25939498#3" to="-25415039#3" lines="taxi"/>
  </person>
  <person id="p21" depart="0">
    <ride from="-37996558#1" to="-25415039#3" lines="taxi"/>
  </person>
  <person id="p22" depart="0">
    <ride from="44443593#2" to="-25415039#3" lines="taxi"/>
  </person>
  <person id="p24" depart="0">
    <ride from="37996159#1" to="-25415039#3" lines="taxi"/>
  </person>
  <person id="p25" depart="0">
    <ride from="-32091203#2" to="-25415039#3" lines="taxi"/>
  </person>
  <person id="p26" depart="0">
    <ride from="28727437#1" to="-25415039#3" lines="taxi"/>
  </person>
  <person id="p27" depart="0">
    <ride from="24996585#0" to="-25415039#3" lines="taxi"/>
  </person>
  <person id="p28" depart="0">
    <ride from="1215949438" to="-25415039#3" lines="taxi"/>
  </person>
  <person id="p29" depart="0">
    <ride from="26668849#2" to="-25415039#3" lines="taxi"/>
  </person>
  <person id="p30" depart="0">
    <ride from="-25335407#2" to="-25415039#3" lines="taxi"/>
  </person>
  <person id="p31" depart="0">
    <ride from="28140027#0" to="-25415039#3" lines="taxi"/>
  </person>
  <person id="p32" depart="0">
    <ride from="-193164108#1" to="-25415039#3" lines="taxi"/>
  </person>
  <person id="p33" depart="0">
    <ride from="-674298787#0" to="-25415039#3" lines="taxi"/>
  </person>
  <person id="p34" depart="0">
    <ride from="1189365209" to="-25415039#3" lines="taxi"/>
  </person>
  <person id="p35" depart="0">
    <ride from="-742449277#0" to="-25415039#3" lines="taxi"/>
  </person>
  <person id="p36" depart="0">
    <ride from="-1022042157#2" to="-25415039#3" lines="taxi"/>
  </person>
  <person id="p37" depart="0">
    <ride from="28725589" to="-25415039#3" lines="taxi"/>
  </person>
  <person id="p38" depart="0">
    <ride from="-28004236" to="-25415039#3" lines="taxi"/>
  </person>
  <person id="p39" depart="0">
    <ride from="-38128299#1" to="-25415039#3" lines="taxi"/>
  </person>
  <person id="p40" depart="0">
    <ride from="44642805#0" to="-25415039#3" lines="taxi"/>
  </person>
  <person id="p41" depart="0">
    <ride from="-25790384" to="-25415039#3" lines="taxi"/>
  </person>
  <person id="p42" depart="0">
    <ride from="-75902756#1" to="-25415039#3" lines="taxi"/>
  </person>
  <person id="p43" depart="0">
    <ride from="-25415038#4" to="-25415039#3" lines="taxi"/>
  </person>
  <person id="p44" depart="0">
    <ride from="1059785584#0" to="-25415039#3" lines="taxi"/>
  </person>
  <person id="p45" depart="0">
    <ride from="1021479206#5" to="-25415039#3" lines="taxi"/>
  </person>
  <person id="p46" depart="0">
    <ride from="-18784601#1" to="-25415039#3" lines="taxi"/>
  </person>
  <person id="p47" depart="0">
    <ride from="-252947536#1" to="-25415039#3" lines="taxi"/>
  </person>
  <person id="p48" depart="0">
    <ride from="-28132132#0" to="-25415039#3" lines="taxi"/>
  </person>
  <person id="p49" depart="0">
    <ride from="-122259339#5" to="-25415039#3" lines="taxi"/>
  </person>
  <person id="p50" depart="0">
    <ride from="-253010733#1" to="-25415039#3" lines="taxi"/>
  </person>
</routes>
