<?xml version="1.0" encoding="UTF-8"?>

<configuration>
    <input>
        <net-file value="Barnim.net.xml"/>
    </input>
    <time>
        <begin value="0"/>
        <end value="10000"/>
    </time>

    <traci_server>
        <num-clients value="2"/>
    </traci_server>
</configuration>
