<?xml version="1.0" encoding="UTF-8"?>

<!-- generated on 2025-06-26 14:07:54 by Eclipse SUMO netconvert Version 1.23.0
<netconvertConfiguration xmlns:xsi="http://www.w3.org/2001/XMLSchema-instance" xsi:noNamespaceSchemaLocation="http://sumo.dlr.de/xsd/netconvertConfiguration.xsd">

    <input>
        <osm-files value=".\map (6).osm"/>
    </input>

    <output>
        <output-file value="ped.net.xml"/>
    </output>

    <projection>
        <proj.utm value="true"/>
    </projection>

    <pedestrian>
        <sidewalks.guess value="true"/>
    </pedestrian>

    <formats>
        <osm.sidewalks value="true"/>
    </formats>

</netconvertConfiguration>
-->

<net version="1.20" junctionCornerDetail="5" limitTurnSpeed="5.50" xmlns:xsi="http://www.w3.org/2001/XMLSchema-instance" xsi:noNamespaceSchemaLocation="http://sumo.dlr.de/xsd/net_file.xsd">

    <location netOffset="-426485.83,-5746561.26" convBoundary="0.00,0.00,434.32,717.59" origBoundary="13.930748,51.865007,13.938585,51.871449" projParameter="+proj=utm +zone=33 +ellps=WGS84 +datum=WGS84 +units=m +no_defs"/>

    <type id="highway.living_street" priority="2" numLanes="1" speed="2.78" disallow="tram rail_urban rail rail_electric rail_fast ship container cable_car subway aircraft wheelchair scooter drone" oneway="0"/>
    <type id="highway.residential" priority="3" numLanes="1" speed="13.89" disallow="tram rail_urban rail rail_electric rail_fast ship container cable_car subway aircraft wheelchair scooter drone" oneway="0"/>
    <type id="highway.service" priority="1" numLanes="1" speed="5.56" allow="pedestrian delivery bicycle" oneway="0"/>
    <type id="highway.unclassified" priority="4" numLanes="1" speed="13.89" disallow="tram rail_urban rail rail_electric rail_fast ship container cable_car subway aircraft wheelchair scooter drone" oneway="0"/>

    <edge id=":4004368494_0" function="internal">
        <lane id=":4004368494_0_0" index="0" disallow="pedestrian tram rail_urban rail rail_electric rail_fast ship container cable_car subway aircraft wheelchair scooter drone" speed="3.65" length="4.67" shape="106.83,-0.15 107.74,-1.27 108.58,-1.59 109.34,-1.12 110.02,0.15"/>
    </edge>
    <edge id=":465626438_0" function="internal">
        <lane id=":465626438_0_0" index="0" disallow="pedestrian tram rail_urban rail rail_electric rail_fast ship container cable_car subway aircraft wheelchair scooter drone" speed="3.65" length="4.67" shape="434.63,328.09 435.65,329.10 435.89,329.96 435.35,330.67 434.02,331.23"/>
    </edge>
    <edge id=":465626440_0" function="internal">
        <lane id=":465626440_0_0" index="0" disallow="pedestrian tram rail_urban rail rail_electric rail_fast ship container cable_car subway aircraft wheelchair scooter drone" speed="6.44" length="9.24" shape="90.64,271.03 88.09,271.00 86.19,271.81 84.94,273.45 84.34,275.94"/>
    </edge>
    <edge id=":465626440_1" function="internal">
        <lane id=":465626440_1_0" index="0" disallow="pedestrian tram rail_urban rail rail_electric rail_fast ship container cable_car subway aircraft wheelchair scooter drone" speed="8.21" length="14.30" shape="90.64,271.03 86.79,269.90 84.15,267.89 82.72,265.01 82.52,261.27"/>
    </edge>
    <edge id=":465626440_2" function="internal">
        <lane id=":465626440_2_0" index="0" disallow="pedestrian tram rail_urban rail rail_electric rail_fast ship container cable_car subway aircraft wheelchair scooter drone" speed="3.65" length="4.67" shape="90.64,271.03 89.58,270.06 89.31,269.21 89.83,268.48 91.14,267.87"/>
    </edge>
    <edge id=":465626440_3" function="internal">
        <lane id=":465626440_3_0" index="0" disallow="pedestrian tram rail_urban rail rail_electric rail_fast ship container cable_car subway aircraft wheelchair scooter drone" speed="6.75" length="9.36" shape="85.70,261.57 85.85,263.98 86.80,265.83 88.57,267.13 91.14,267.87"/>
    </edge>
    <edge id=":465626440_4" function="internal">
        <lane id=":465626440_4_0" index="0" disallow="pedestrian tram rail_urban rail rail_electric rail_fast ship container cable_car subway aircraft wheelchair scooter drone" speed="13.89" length="14.43" shape="85.70,261.57 84.34,275.94"/>
    </edge>
    <edge id=":465626440_5" function="internal">
        <lane id=":465626440_5_0" index="0" disallow="pedestrian tram rail_urban rail rail_electric rail_fast ship container cable_car subway aircraft wheelchair scooter drone" speed="3.65" length="1.44" shape="85.70,261.57 84.79,262.69"/>
    </edge>
    <edge id=":465626440_9" function="internal">
        <lane id=":465626440_9_0" index="0" disallow="pedestrian tram rail_urban rail rail_electric rail_fast ship container cable_car subway aircraft wheelchair scooter drone" speed="3.65" length="3.23" shape="84.79,262.69 83.96,263.01 83.20,262.54 82.52,261.27"/>
    </edge>
    <edge id=":465626440_6" function="internal">
        <lane id=":465626440_6_0" index="0" disallow="pedestrian tram rail_urban rail rail_electric rail_fast ship container cable_car subway aircraft wheelchair scooter drone" speed="13.89" length="14.44" shape="81.15,275.64 82.52,261.27"/>
    </edge>
    <edge id=":465626440_7" function="internal">
        <lane id=":465626440_7_0" index="0" disallow="pedestrian tram rail_urban rail rail_electric rail_fast ship container cable_car subway aircraft wheelchair scooter drone" speed="7.94" length="4.17" shape="81.15,275.64 82.10,271.70 82.18,271.61"/>
    </edge>
    <edge id=":465626440_8" function="internal">
        <lane id=":465626440_8_0" index="0" disallow="pedestrian tram rail_urban rail rail_electric rail_fast ship container cable_car subway aircraft wheelchair scooter drone" speed="3.65" length="1.44" shape="81.15,275.64 82.06,274.52"/>
    </edge>
    <edge id=":465626440_10" function="internal">
        <lane id=":465626440_10_0" index="0" disallow="pedestrian tram rail_urban rail rail_electric rail_fast ship container cable_car subway aircraft wheelchair scooter drone" speed="7.94" length="10.47" shape="82.18,271.61 84.08,269.10 87.09,267.82 91.14,267.87"/>
    </edge>
    <edge id=":465626440_11" function="internal">
        <lane id=":465626440_11_0" index="0" disallow="pedestrian tram rail_urban rail rail_electric rail_fast ship container cable_car subway aircraft wheelchair scooter drone" speed="3.65" length="3.23" shape="82.06,274.52 82.90,274.19 83.65,274.67 84.34,275.94"/>
    </edge>
    <edge id=":465626596_0" function="internal">
        <lane id=":465626596_0_0" index="0" disallow="pedestrian tram rail_urban rail rail_electric rail_fast ship container cable_car subway aircraft wheelchair scooter drone" speed="3.65" length="4.67" shape="45.43,717.66 44.57,718.82 43.75,719.18 42.97,718.74 42.23,717.51"/>
    </edge>
    <edge id=":465626659_0" function="internal">
        <lane id=":465626659_0_0" index="0" disallow="pedestrian tram rail_urban rail rail_electric rail_fast ship container cable_car subway aircraft wheelchair scooter drone" speed="8.33" length="10.19" shape="262.82,298.24 252.78,296.50"/>
    </edge>
    <edge id=":465626659_1" function="internal">
        <lane id=":465626659_1_0" index="0" disallow="pedestrian tram rail_urban rail rail_electric rail_fast ship container cable_car subway aircraft wheelchair scooter drone" speed="5.56" length="2.80" shape="262.82,298.24 260.23,297.18"/>
    </edge>
    <edge id=":465626659_2" function="internal">
        <lane id=":465626659_2_0" index="0" disallow="pedestrian tram rail_urban rail rail_electric rail_fast ship container cable_car subway aircraft wheelchair scooter drone" speed="3.65" length="1.44" shape="262.82,298.24 261.80,297.23"/>
    </edge>
    <edge id=":465626659_9" function="internal">
        <lane id=":465626659_9_0" index="0" disallow="pedestrian tram rail_urban rail rail_electric rail_fast ship container cable_car subway aircraft wheelchair scooter drone" speed="5.56" length="9.70" shape="260.23,297.18 258.50,295.16 257.62,292.18 257.59,288.25"/>
    </edge>
    <edge id=":465626659_10" function="internal">
        <lane id=":465626659_10_0" index="0" disallow="pedestrian tram rail_urban rail rail_electric rail_fast ship container cable_car subway aircraft wheelchair scooter drone" speed="3.65" length="3.23" shape="261.80,297.23 261.55,296.37 262.10,295.66 263.43,295.10"/>
    </edge>
    <edge id=":465626659_3" function="internal">
        <lane id=":465626659_3_0" index="0" disallow="pedestrian tram rail_urban rail rail_electric rail_fast ship container cable_car subway aircraft wheelchair scooter drone" speed="5.56" length="7.75" shape="260.78,288.54 260.74,291.18 261.17,293.15 262.07,294.46 263.43,295.10"/>
    </edge>
    <edge id=":465626659_4" function="internal">
        <lane id=":465626659_4_0" index="0" disallow="pedestrian tram rail_urban rail rail_electric rail_fast ship container cable_car subway aircraft wheelchair scooter drone" speed="5.56" length="13.01" shape="260.78,288.54 259.97,292.44 258.37,295.07 255.97,296.43 252.78,296.50"/>
    </edge>
    <edge id=":465626659_5" function="internal">
        <lane id=":465626659_5_0" index="0" disallow="tram rail_urban rail rail_electric rail_fast ship container cable_car subway aircraft wheelchair scooter drone" speed="2.78" length="4.67" shape="260.78,288.54 259.87,289.66 259.04,289.99 258.28,289.52 257.59,288.25"/>
    </edge>
    <edge id=":465626659_6" function="internal">
        <lane id=":465626659_6_0" index="0" disallow="pedestrian tram rail_urban rail rail_electric rail_fast ship container cable_car subway aircraft wheelchair scooter drone" speed="5.56" length="7.63" shape="253.28,293.34 254.97,293.25 256.25,292.37 257.13,290.70 257.59,288.25"/>
    </edge>
    <edge id=":465626659_7" function="internal">
        <lane id=":465626659_7_0" index="0" disallow="pedestrian tram rail_urban rail rail_electric rail_fast ship container cable_car subway aircraft wheelchair scooter drone" speed="8.33" length="10.30" shape="253.28,293.34 263.43,295.10"/>
    </edge>
    <edge id=":465626659_8" function="internal">
        <lane id=":465626659_8_0" index="0" disallow="pedestrian tram rail_urban rail rail_electric rail_fast ship container cable_car subway aircraft wheelchair scooter drone" speed="3.65" length="1.44" shape="253.28,293.34 254.34,294.32"/>
    </edge>
    <edge id=":465626659_11" function="internal">
        <lane id=":465626659_11_0" index="0" disallow="pedestrian tram rail_urban rail rail_electric rail_fast ship container cable_car subway aircraft wheelchair scooter drone" speed="3.65" length="3.23" shape="254.34,294.32 254.61,295.17 254.09,295.90 252.78,296.50"/>
    </edge>
    <edge id=":465626662_0" function="internal">
        <lane id=":465626662_0_0" index="0" disallow="pedestrian tram rail_urban rail rail_electric rail_fast ship container cable_car subway aircraft wheelchair scooter drone" speed="8.33" length="10.45" shape="324.70,310.11 314.44,308.16"/>
    </edge>
    <edge id=":465626662_1" function="internal">
        <lane id=":465626662_1_0" index="0" disallow="pedestrian tram rail_urban rail rail_electric rail_fast ship container cable_car subway aircraft wheelchair scooter drone" speed="5.56" length="2.91" shape="324.70,310.11 322.12,309.06 322.04,308.97"/>
    </edge>
    <edge id=":465626662_2" function="internal">
        <lane id=":465626662_2_0" index="0" disallow="pedestrian tram rail_urban rail rail_electric rail_fast ship container cable_car subway aircraft wheelchair scooter drone" speed="3.65" length="1.44" shape="324.70,310.11 323.67,309.11"/>
    </edge>
    <edge id=":465626662_9" function="internal">
        <lane id=":465626662_9_0" index="0" disallow="pedestrian tram rail_urban rail rail_electric rail_fast ship container cable_car subway aircraft wheelchair scooter drone" speed="5.56" length="9.72" shape="322.04,308.97 320.38,307.02 319.49,304.00 319.45,300.00"/>
    </edge>
    <edge id=":465626662_10" function="internal">
        <lane id=":465626662_10_0" index="0" disallow="pedestrian tram rail_urban rail rail_electric rail_fast ship container cable_car subway aircraft wheelchair scooter drone" speed="3.65" length="3.23" shape="323.67,309.11 323.43,308.25 323.97,307.53 325.30,306.97"/>
    </edge>
    <edge id=":465626662_3" function="internal">
        <lane id=":465626662_3_0" index="0" disallow="pedestrian tram rail_urban rail rail_electric rail_fast ship container cable_car subway aircraft wheelchair scooter drone" speed="5.56" length="7.88" shape="322.64,300.27 322.61,302.98 323.04,304.99 323.94,306.33 325.30,306.97"/>
    </edge>
    <edge id=":465626662_4" function="internal">
        <lane id=":465626662_4_0" index="0" disallow="pedestrian tram rail_urban rail rail_electric rail_fast ship container cable_car subway aircraft wheelchair scooter drone" speed="5.56" length="13.25" shape="322.64,300.27 321.82,304.25 320.19,306.90 317.72,308.20 314.44,308.16"/>
    </edge>
    <edge id=":465626662_5" function="internal">
        <lane id=":465626662_5_0" index="0" disallow="tram rail_urban rail rail_electric rail_fast ship container cable_car subway aircraft wheelchair scooter drone" speed="2.78" length="4.67" shape="322.64,300.27 321.74,301.40 320.90,301.73 320.14,301.26 319.45,300.00"/>
    </edge>
    <edge id=":465626662_6" function="internal">
        <lane id=":465626662_6_0" index="0" disallow="pedestrian tram rail_urban rail rail_electric rail_fast ship container cable_car subway aircraft wheelchair scooter drone" speed="5.56" length="7.71" shape="315.04,305.01 316.78,304.98 318.10,304.14 318.99,302.47 319.45,300.00"/>
    </edge>
    <edge id=":465626662_7" function="internal">
        <lane id=":465626662_7_0" index="0" disallow="pedestrian tram rail_urban rail rail_electric rail_fast ship container cable_car subway aircraft wheelchair scooter drone" speed="8.33" length="10.44" shape="315.04,305.01 325.30,306.97"/>
    </edge>
    <edge id=":465626662_8" function="internal">
        <lane id=":465626662_8_0" index="0" disallow="pedestrian tram rail_urban rail rail_electric rail_fast ship container cable_car subway aircraft wheelchair scooter drone" speed="3.65" length="1.44" shape="315.04,305.01 316.07,306.03"/>
    </edge>
    <edge id=":465626662_11" function="internal">
        <lane id=":465626662_11_0" index="0" disallow="pedestrian tram rail_urban rail rail_electric rail_fast ship container cable_car subway aircraft wheelchair scooter drone" speed="3.65" length="3.23" shape="316.07,306.03 316.31,306.89 315.76,307.60 314.44,308.16"/>
    </edge>
    <edge id=":713047338_0" function="internal">
        <lane id=":713047338_0_0" index="0" allow="pedestrian delivery bicycle" speed="3.65" length="4.67" shape="267.58,148.90 266.70,150.04 265.87,150.39 265.10,149.94 264.38,148.68"/>
    </edge>
    <edge id=":713047373_0" function="internal">
        <lane id=":713047373_0_0" index="0" allow="pedestrian delivery bicycle" speed="3.65" length="4.67" shape="345.70,114.78 346.83,115.67 347.17,116.50 346.70,117.27 345.44,117.97"/>
    </edge>
    <edge id=":8935552699_0" function="internal">
        <lane id=":8935552699_0_0" index="0" disallow="pedestrian tram rail_urban rail rail_electric rail_fast ship container cable_car subway aircraft wheelchair scooter drone" speed="13.89" length="9.37" shape="73.40,392.82 72.56,402.15"/>
    </edge>
    <edge id=":8935552699_1" function="internal">
        <lane id=":8935552699_1_0" index="0" allow="delivery bicycle" speed="7.44" length="2.86" shape="73.40,392.82 72.64,395.42 72.53,395.53"/>
    </edge>
    <edge id=":8935552699_7" function="internal">
        <lane id=":8935552699_7_0" index="0" allow="delivery bicycle" speed="7.44" length="8.92" shape="72.53,395.53 70.90,397.22 68.19,398.20 64.51,398.37"/>
    </edge>
    <edge id=":8935552699_2" function="internal">
        <lane id=":8935552699_2_0" index="0" allow="delivery bicycle" speed="5.82" length="6.80" shape="64.68,395.18 67.00,395.12 68.70,394.66 69.77,393.79 70.22,392.52"/>
    </edge>
    <edge id=":8935552699_3" function="internal">
        <lane id=":8935552699_3_0" index="0" allow="delivery bicycle" speed="7.33" length="12.01" shape="64.68,395.18 68.34,395.79 70.88,397.16 72.28,399.28 72.56,402.15"/>
    </edge>
    <edge id=":8935552699_4" function="internal">
        <lane id=":8935552699_4_0" index="0" allow="pedestrian delivery bicycle" speed="3.65" length="4.67" shape="64.68,395.18 65.84,396.04 66.19,396.87 65.75,397.64 64.51,398.37"/>
    </edge>
    <edge id=":8935552699_5" function="internal">
        <lane id=":8935552699_5_0" index="0" allow="delivery bicycle" speed="5.67" length="6.76" shape="69.37,401.87 69.17,400.45 68.29,399.39 66.74,398.70 64.51,398.37"/>
    </edge>
    <edge id=":8935552699_6" function="internal">
        <lane id=":8935552699_6_0" index="0" disallow="pedestrian tram rail_urban rail rail_electric rail_fast ship container cable_car subway aircraft wheelchair scooter drone" speed="13.89" length="9.39" shape="69.37,401.87 70.22,392.52"/>
    </edge>
    <edge id=":8935552703_0" function="internal">
        <lane id=":8935552703_0_0" index="0" allow="pedestrian delivery bicycle" speed="3.65" length="4.67" shape="0.41,404.32 -0.95,403.86 -1.55,403.19 -1.37,402.31 -0.41,401.23"/>
    </edge>
    <edge id=":9010466338_0" function="internal">
        <lane id=":9010466338_0_0" index="0" disallow="pedestrian tram rail_urban rail rail_electric rail_fast ship container cable_car subway aircraft wheelchair scooter drone" speed="13.89" length="9.40" shape="81.31,308.34 80.43,317.70"/>
    </edge>
    <edge id=":9010466338_1" function="internal">
        <lane id=":9010466338_1_0" index="0" allow="delivery bicycle" speed="7.41" length="2.91" shape="81.31,308.34 80.54,310.99 80.43,311.10"/>
    </edge>
    <edge id=":9010466338_7" function="internal">
        <lane id=":9010466338_7_0" index="0" allow="delivery bicycle" speed="7.41" length="8.89" shape="80.43,311.10 78.80,312.79 76.09,313.75 72.42,313.87"/>
    </edge>
    <edge id=":9010466338_2" function="internal">
        <lane id=":9010466338_2_0" index="0" allow="delivery bicycle" speed="5.77" length="6.76" shape="72.65,310.68 74.94,310.66 76.61,310.21 77.67,309.34 78.12,308.05"/>
    </edge>
    <edge id=":9010466338_3" function="internal">
        <lane id=":9010466338_3_0" index="0" allow="delivery bicycle" speed="7.33" length="11.95" shape="72.65,310.68 76.28,311.35 78.79,312.74 80.17,314.86 80.43,317.70"/>
    </edge>
    <edge id=":9010466338_4" function="internal">
        <lane id=":9010466338_4_0" index="0" allow="pedestrian delivery bicycle" speed="3.65" length="4.67" shape="72.65,310.68 73.79,311.57 74.13,312.39 73.67,313.16 72.42,313.87"/>
    </edge>
    <edge id=":9010466338_5" function="internal">
        <lane id=":9010466338_5_0" index="0" allow="delivery bicycle" speed="5.68" length="6.74" shape="77.25,317.41 77.05,316.00 76.19,314.94 74.64,314.23 72.42,313.87"/>
    </edge>
    <edge id=":9010466338_6" function="internal">
        <lane id=":9010466338_6_0" index="0" disallow="pedestrian tram rail_urban rail rail_electric rail_fast ship container cable_car subway aircraft wheelchair scooter drone" speed="13.89" length="9.40" shape="77.25,317.41 78.12,308.05"/>
    </edge>
    <edge id=":9010466341_0" function="internal">
        <lane id=":9010466341_0_0" index="0" disallow="pedestrian tram rail_urban rail rail_electric rail_fast ship container cable_car subway aircraft wheelchair scooter drone" speed="13.89" length="9.40" shape="83.67,283.11 82.79,292.47"/>
    </edge>
    <edge id=":9010466341_1" function="internal">
        <lane id=":9010466341_1_0" index="0" allow="delivery bicycle" speed="7.45" length="2.87" shape="83.67,283.11 82.90,285.71 82.79,285.82"/>
    </edge>
    <edge id=":9010466341_7" function="internal">
        <lane id=":9010466341_7_0" index="0" allow="delivery bicycle" speed="7.45" length="8.93" shape="82.79,285.82 81.16,287.50 78.44,288.49 74.75,288.67"/>
    </edge>
    <edge id=":9010466341_2" function="internal">
        <lane id=":9010466341_2_0" index="0" allow="delivery bicycle" speed="5.83" length="6.83" shape="74.92,285.47 77.25,285.41 78.95,284.95 80.03,284.08 80.48,282.81"/>
    </edge>
    <edge id=":9010466341_3" function="internal">
        <lane id=":9010466341_3_0" index="0" allow="delivery bicycle" speed="7.32" length="12.06" shape="74.92,285.47 78.59,286.08 81.13,287.45 82.53,289.58 82.79,292.47"/>
    </edge>
    <edge id=":9010466341_4" function="internal">
        <lane id=":9010466341_4_0" index="0" allow="pedestrian delivery bicycle" speed="3.65" length="4.67" shape="74.92,285.47 76.07,286.34 76.43,287.16 75.99,287.93 74.75,288.67"/>
    </edge>
    <edge id=":9010466341_5" function="internal">
        <lane id=":9010466341_5_0" index="0" allow="delivery bicycle" speed="5.66" length="6.78" shape="79.61,292.18 79.42,290.74 78.54,289.68 76.99,288.99 74.75,288.67"/>
    </edge>
    <edge id=":9010466341_6" function="internal">
        <lane id=":9010466341_6_0" index="0" disallow="pedestrian tram rail_urban rail rail_electric rail_fast ship container cable_car subway aircraft wheelchair scooter drone" speed="13.89" length="9.40" shape="79.61,292.18 80.48,282.81"/>
    </edge>

    <edge id="-1349332095" from="4004368494" to="465626440" priority="4" type="highway.unclassified" shape="108.42,0.00 104.37,42.41 100.65,89.63 83.45,268.29">
        <lane id="-1349332095_0" index="0" allow="pedestrian" speed="13.89" length="262.55" width="2.00" shape="112.61,0.40 108.55,42.77 104.84,89.99 88.29,261.82"/>
        <lane id="-1349332095_1" index="1" disallow="pedestrian tram rail_urban rail rail_electric rail_fast ship container cable_car subway aircraft wheelchair scooter drone" speed="13.89" length="262.55" shape="110.02,0.15 105.96,42.55 102.25,89.77 85.70,261.57"/>
    </edge>
    <edge id="-39040725" from="465626662" to="465626659" priority="2" type="highway.living_street" shape="320.40,307.67 330.33,191.66 329.51,188.67 326.30,187.11 272.68,183.48 268.42,186.58 258.51,295.78">
        <lane id="-39040725_0" index="0" disallow="tram rail_urban rail rail_electric rail_fast ship container cable_car subway aircraft wheelchair scooter drone" speed="2.78" length="271.53" shape="319.45,300.00 328.72,191.81 328.16,189.79 325.88,188.69 273.15,185.12 269.95,187.45 260.78,288.54"/>
    </edge>
    <edge id="-420011818#0" from="8935552699" to="465626596" priority="4" type="highway.unclassified" shape="71.39,397.16 44.87,697.14 44.60,701.92 43.83,717.59">
        <lane id="-420011818#0_0" index="0" allow="pedestrian" speed="13.89" length="316.64" width="2.00" shape="75.15,402.38 49.06,697.44 48.79,702.15 48.03,717.79"/>
        <lane id="-420011818#0_1" index="1" disallow="pedestrian tram rail_urban rail rail_electric rail_fast ship container cable_car subway aircraft wheelchair scooter drone" speed="13.89" length="316.64" shape="72.56,402.15 46.47,697.25 46.20,702.01 45.43,717.66"/>
    </edge>
    <edge id="-420011818#1" from="9010466338" to="8935552699" priority="4" type="highway.unclassified">
        <lane id="-420011818#1_0" index="0" allow="pedestrian" speed="13.89" length="75.44" width="2.00" shape="83.02,317.95 75.99,393.06"/>
        <lane id="-420011818#1_1" index="1" disallow="pedestrian tram rail_urban rail rail_electric rail_fast ship container cable_car subway aircraft wheelchair scooter drone" speed="13.89" length="75.44" shape="80.43,317.70 73.40,392.82"/>
    </edge>
    <edge id="-420011818#2" from="9010466341" to="9010466338" priority="4" type="highway.unclassified">
        <lane id="-420011818#2_0" index="0" allow="pedestrian" speed="13.89" length="15.94" width="2.00" shape="85.38,292.72 83.90,308.59"/>
        <lane id="-420011818#2_1" index="1" disallow="pedestrian tram rail_urban rail rail_electric rail_fast ship container cable_car subway aircraft wheelchair scooter drone" speed="13.89" length="15.94" shape="82.79,292.47 81.31,308.34"/>
    </edge>
    <edge id="-420011818#3" from="465626440" to="9010466341" priority="4" type="highway.unclassified">
        <lane id="-420011818#3_0" index="0" allow="pedestrian" speed="13.89" length="7.20" width="2.00" shape="86.93,276.18 86.26,283.35"/>
        <lane id="-420011818#3_1" index="1" disallow="pedestrian tram rail_urban rail rail_electric rail_fast ship container cable_car subway aircraft wheelchair scooter drone" speed="13.89" length="7.20" shape="84.34,275.94 83.67,283.11"/>
    </edge>
    <edge id="-57371455#0" from="465626662" to="465626438" priority="3" type="highway.residential" shape="320.40,307.67 337.22,310.85 434.32,329.66">
        <lane id="-57371455#0_0" index="0" allow="pedestrian" speed="8.33" length="111.35" width="2.00" shape="325.78,304.42 338.01,306.73 435.12,325.54"/>
        <lane id="-57371455#0_1" index="1" disallow="pedestrian tram rail_urban rail rail_electric rail_fast ship container cable_car subway aircraft wheelchair scooter drone" speed="8.33" length="111.35" shape="325.30,306.97 337.52,309.28 434.63,328.09"/>
    </edge>
    <edge id="-57371455#1" from="465626659" to="465626662" priority="3" type="highway.residential">
        <lane id="-57371455#1_0" index="0" allow="pedestrian" speed="8.33" length="52.56" width="2.00" shape="263.92,292.54 315.53,302.46"/>
        <lane id="-57371455#1_1" index="1" disallow="pedestrian tram rail_urban rail rail_electric rail_fast ship container cable_car subway aircraft wheelchair scooter drone" speed="8.33" length="52.56" shape="263.43,295.10 315.04,305.01"/>
    </edge>
    <edge id="-57371455#2" from="465626440" to="465626659" priority="3" type="highway.residential" shape="83.45,268.29 89.29,269.20 258.51,295.78">
        <lane id="-57371455#2_0" index="0" allow="pedestrian" speed="8.33" length="164.13" width="2.00" shape="91.54,265.30 253.68,290.77"/>
        <lane id="-57371455#2_1" index="1" disallow="pedestrian tram rail_urban rail rail_electric rail_fast ship container cable_car subway aircraft wheelchair scooter drone" speed="8.33" length="164.13" shape="91.14,267.87 253.28,293.34"/>
    </edge>
    <edge id="-80539876" from="713047338" to="713047373" priority="1" type="highway.service" shape="265.98,148.79 268.60,110.11 333.44,115.39 345.57,116.37">
        <lane id="-80539876_0" index="0" allow="pedestrian delivery bicycle" speed="5.56" length="119.24" shape="264.38,148.68 267.12,108.38 333.57,113.80 345.70,114.78"/>
    </edge>
    <edge id="-965896880" from="8935552703" to="8935552699" priority="1" type="highway.service" shape="0.00,402.77 17.32,398.16 32.09,395.93 56.90,396.34 71.39,397.16">
        <lane id="-965896880_0" index="0" allow="pedestrian delivery bicycle" speed="5.56" length="65.89" shape="-0.41,401.23 16.99,396.59 31.99,394.33 56.96,394.75 64.68,395.18"/>
    </edge>
    <edge id="-973559239" from="9010466338" to="9010466341" priority="1" type="highway.service" shape="79.29,312.77 74.56,312.42 26.86,309.02 22.56,301.39 22.99,284.33 72.65,286.95 81.66,287.43">
        <lane id="-973559239_0" index="0" allow="pedestrian delivery bicycle" speed="5.56" length="129.41" shape="72.42,313.87 25.89,310.55 20.95,301.79 21.44,282.65 72.73,285.36 74.92,285.47"/>
    </edge>
    <edge id="1349332095" from="465626440" to="4004368494" priority="4" type="highway.unclassified" shape="83.45,268.29 100.65,89.63 104.37,42.41 108.42,0.00">
        <lane id="1349332095_0" index="0" allow="pedestrian" speed="13.89" length="262.55" width="2.00" shape="79.93,261.02 96.47,89.26 100.18,42.04 104.24,-0.40"/>
        <lane id="1349332095_1" index="1" disallow="pedestrian tram rail_urban rail rail_electric rail_fast ship container cable_car subway aircraft wheelchair scooter drone" speed="13.89" length="262.55" shape="82.52,261.27 99.06,89.49 102.78,42.27 106.83,-0.15"/>
    </edge>
    <edge id="39040725" from="465626659" to="465626662" priority="2" type="highway.living_street" shape="258.51,295.78 268.42,186.58 272.68,183.48 326.30,187.11 329.51,188.67 330.33,191.66 320.40,307.67">
        <lane id="39040725_0" index="0" disallow="tram rail_urban rail rail_electric rail_fast ship container cable_car subway aircraft wheelchair scooter drone" speed="2.78" length="282.04" shape="257.59,288.25 266.89,185.71 272.21,181.84 326.72,185.54 330.85,187.54 331.95,191.51 322.64,300.27"/>
    </edge>
    <edge id="420011818#0" from="465626596" to="8935552699" priority="4" type="highway.unclassified" shape="43.83,717.59 44.60,701.92 44.87,697.14 71.39,397.16">
        <lane id="420011818#0_0" index="0" allow="pedestrian" speed="13.89" length="316.87" width="2.00" shape="39.64,717.38 40.40,701.71 40.68,696.83 66.78,401.64"/>
        <lane id="420011818#0_1" index="1" disallow="pedestrian tram rail_urban rail rail_electric rail_fast ship container cable_car subway aircraft wheelchair scooter drone" speed="13.89" length="316.87" shape="42.23,717.51 43.00,701.84 43.28,697.02 69.37,401.87"/>
    </edge>
    <edge id="420011818#1" from="8935552699" to="9010466338" priority="4" type="highway.unclassified">
        <lane id="420011818#1_0" index="0" allow="pedestrian" speed="13.89" length="75.44" width="2.00" shape="67.63,392.28 74.66,317.16"/>
        <lane id="420011818#1_1" index="1" disallow="pedestrian tram rail_urban rail rail_electric rail_fast ship container cable_car subway aircraft wheelchair scooter drone" speed="13.89" length="75.44" shape="70.22,392.52 77.25,317.41"/>
    </edge>
    <edge id="420011818#2" from="9010466338" to="9010466341" priority="4" type="highway.unclassified">
        <lane id="420011818#2_0" index="0" allow="pedestrian" speed="13.89" length="15.94" width="2.00" shape="75.53,307.80 77.02,291.93"/>
        <lane id="420011818#2_1" index="1" disallow="pedestrian tram rail_urban rail rail_electric rail_fast ship container cable_car subway aircraft wheelchair scooter drone" speed="13.89" length="15.94" shape="78.12,308.05 79.61,292.18"/>
    </edge>
    <edge id="420011818#3" from="9010466341" to="465626440" priority="4" type="highway.unclassified">