<nodes>
	<node id="10006900412" x="383064.62" y="5819637.86" z="0.00" type="priority" />
	<node id="10006924782" x="383026.37" y="5819454.22" z="0.00" type="priority" />
	<node id="10006929801" x="383078.06" y="5819633.77" z="0.00" type="priority" />
	<node id="10006939457" x="383149.37" y="5820051.00" z="0.00" type="priority" />
	<node id="10076399002" x="383400.94" y="5819178.17" z="0.00" type="priority" />
	<node id="10076402622" x="382137.76" y="5820402.18" z="0.00" type="priority" />
	<node id="10076403251" x="382151.84" y="5820397.41" z="0.00" type="priority" />
	<node id="10076418552" x="383375.40" y="5819141.62" z="0.00" type="priority" />
	<node id="10076419172" x="383356.78" y="5819465.75" z="0.00" type="priority" />
	<node id="10076421651" x="383403.21" y="5819127.38" z="0.00" type="priority" />
	<node id="10076434581" x="383374.40" y="5819158.61" z="0.00" type="priority" />
	<node id="10076434582" x="383387.37" y="5819127.01" z="0.00" type="priority" />
	<node id="10076439469" x="383369.50" y="5819453.82" z="0.00" type="priority" />
	<node id="10076448388" x="383384.79" y="5819454.71" z="0.00" type="priority" />
	<node id="10076448722" x="383382.93" y="5819481.55" z="0.00" type="priority" />
	<node id="10076905921" x="383313.68" y="5820113.66" z="0.00" type="priority" />
	<node id="10076915437" x="383283.30" y="5820093.24" z="0.00" type="priority" />
	<node id="10076919019" x="383332.18" y="5820083.29" z="0.00" type="priority" />
	<node id="10111842909" x="382020.34" y="5819947.74" z="0.00" type="priority" />
	<node id="10121269309" x="382052.86" y="5819801.35" z="0.00" type="priority" />
	<node id="10121283137" x="381995.95" y="5819972.05" z="0.00" type="priority" />
	<node id="10121291553" x="381890.50" y="5819880.35" z="0.00" type="priority" />
	<node id="10125344509" x="382289.36" y="5819874.10" z="0.00" type="priority" />
	<node id="10169729714" x="382447.80" y="5819715.74" z="0.00" type="priority" />
	<node id="10169831366" x="382868.58" y="5819161.12" z="0.00" type="priority" />
	<node id="10169889914" x="382475.59" y="5819706.70" z="0.00" type="priority" />
	<node id="10169895376" x="382458.51" y="5819712.25" z="0.00" type="priority" />
	<node id="10169896970" x="382646.51" y="5819651.24" z="0.00" type="priority" />
	<node id="10169896971" x="382668.96" y="5819644.08" z="0.00" type="priority" />
	<node id="10170009835" x="382574.03" y="5819502.49" z="0.00" type="priority" />
	<node id="10170009926" x="382562.82" y="5819466.09" z="0.00" type="priority" />
	<node id="10170127336" x="381923.26" y="5819939.75" z="0.00" type="priority" />
	<node id="10171430009" x="382573.09" y="5819300.25" z="0.00" type="priority" />
	<node id="10171462644" x="382464.48" y="5819381.10" z="0.00" type="priority" />
	<node id="10171468847" x="382633.25" y="5819238.39" z="0.00" type="priority" />
	<node id="10178932892" x="382315.77" y="5819014.65" z="0.00" type="priority" />
	<node id="10179017937" x="382728.59" y="5819170.78" z="0.00" type="priority" />
	<node id="10179023270" x="382740.84" y="5819167.43" z="0.00" type="priority" />
	<node id="10180658876" x="382845.54" y="5820206.90" z="0.00" type="priority" />
	<node id="10180666011" x="382982.76" y="5820144.32" z="0.00" type="priority" />
	<node id="10180683867" x="382388.63" y="5820335.48" z="0.00" type="priority" />
	<node id="10180691524" x="382942.02" y="5820174.14" z="0.00" type="priority" />
	<node id="10180691525" x="383080.12" y="5820128.49" z="0.00" type="priority" />
	<node id="10180727991" x="383399.26" y="5819215.49" z="0.00" type="priority" />
	<node id="10180744465" x="383372.19" y="5819406.52" z="0.00" type="priority" />
	<node id="10180758429" x="383387.82" y="5819411.18" z="0.00" type="priority" />
	<node id="10180759096" x="383358.75" y="5819592.59" z="0.00" type="priority" />
	<node id="10180759097" x="383380.50" y="5819518.70" z="0.00" type="priority" />
	<node id="10180760275" x="383364.99" y="5819515.59" z="0.00" type="priority" />
	<node id="10204483042" x="382873.64" y="5819100.69" z="0.00" type="priority" />
	<node id="10204499033" x="383070.60" y="5819116.85" z="0.00" type="priority" />
	<node id="10204501040" x="382571.94" y="5819070.97" z="0.00" type="priority" />
	<node id="10215652788" x="383280.05" y="5819150.70" z="0.00" type="priority" />
	<node id="10215672876" x="382902.13" y="5819119.80" z="0.00" type="priority" />
	<node id="10215722431" x="383144.57" y="5819139.74" z="0.00" type="priority" />
	<node id="10215775686" x="382708.30" y="5819196.28" z="0.00" type="priority" />
	<node id="10238299230" x="383337.76" y="5819012.73" z="0.00" type="priority" />
	<node id="10238653343" x="383180.45" y="5819001.34" z="0.00" type="priority" />
	<node id="10238684270" x="383190.92" y="5819001.84" z="0.00" type="priority" />
	<node id="10561958879" x="382859.80" y="5819099.45" z="0.00" type="traffic_light" />
	<node id="10561958880" x="382827.91" y="5819132.05" z="0.00" type="priority" />
	<node id="10567176500" x="383358.42" y="5819157.30" z="0.00" type="priority" />
	<node id="10567189718" x="383356.70" y="5819139.83" z="0.00" type="priority" />
	<node id="10617759817" x="383446.77" y="5819164.73" z="0.00" type="priority" />
	<node id="10672978474" x="383369.89" y="5819014.71" z="0.00" type="priority" />
	<node id="10674656455" x="383255.89" y="5819118.45" z="0.00" type="priority" />
	<node id="10678420523" x="382172.98" y="5820405.06" z="0.00" type="priority" />
	<node id="10863131324" x="382071.54" y="5819782.48" z="0.00" type="priority" />
	<node id="1092697792" x="383307.10" y="5820015.06" z="0.00" type="priority" />
	<node id="1092698172" x="383324.97" y="5820011.97" z="0.00" type="priority" />
	<node id="10929699511" x="383372.28" y="5820086.38" z="0.00" type="priority" />
	<node id="1095093587" x="383301.27" y="5820064.67" z="0.00" type="priority" />
	<node id="1097227997" x="381966.68" y="5819872.48" z="0.00" type="traffic_light" />
	<node id="11131955759" x="383240.92" y="5820036.38" z="0.00" type="priority" />
	<node id="11131977713" x="383408.91" y="5819263.79" z="0.00" type="priority" />
	<node id="11131980630" x="383598.44" y="5819282.84" z="0.00" type="priority" />
	<node id="11131980924" x="383367.38" y="5819259.26" z="0.00" type="priority" />
	<node id="11132012897" x="383348.30" y="5819580.17" z="0.00" type="priority" />
	<node id="11133489564" x="382012.60" y="5820472.79" z="0.00" type="priority" />
	<node id="1113899869" x="381949.75" y="5819485.00" z="0.00" type="priority" />
	<node id="1114040971" x="382058.90" y="5819795.19" z="0.00" type="priority" />
	<node id="11426881943" x="382698.26" y="5819139.37" z="0.00" type="priority" />
	<node id="11426958630" x="382844.92" y="5819090.93" z="0.00" type="priority" />
	<node id="12074026049" x="382864.52" y="5819143.03" z="0.00" type="priority" />
	<node id="12227695189" x="382145.40" y="5820382.35" z="0.00" type="priority" />
	<node id="12644254155" x="382012.06" y="5819867.26" z="0.00" type="traffic_light" />
	<node id="12662262229" x="382065.29" y="5820452.41" z="0.00" type="priority" />
	<node id="1273530466" x="382435.41" y="5820339.29" z="0.00" type="priority" />
	<node id="1387147593" x="381912.88" y="5820500.71" z="0.00" type="traffic_light" />
	<node id="1646685034" x="382657.54" y="5819092.72" z="0.00" type="priority" />
	<node id="16541457" x="381974.42" y="5819877.85" z="0.00" type="priority" />
	<node id="16541467" x="382671.17" y="5819173.53" z="0.00" type="priority" />
	<node id="16541468" x="382697.44" y="5819138.00" z="0.00" type="priority" />
	<node id="16541469" x="382773.08" y="5819037.53" z="0.00" type="priority" />
	<node id="16541474" x="382700.63" y="5819061.11" z="0.00" type="priority" />
	<node id="16541478" x="381990.24" y="5819038.35" z="0.00" type="priority" />
	<node id="1666510868" x="383354.87" y="5818945.75" z="0.00" type="priority" />
	<node id="1735542977" x="382546.48" y="5819070.01" z="0.00" type="priority" />
	<node id="1735542978" x="382510.04" y="5819079.35" z="0.00" type="priority" />
	<node id="1753097247" x="382686.87" y="5819084.16" z="0.00" type="traffic_light" />
	<node id="1753097275" x="382848.96" y="5819116.54" z="0.00" type="traffic_light" />
	<node id="1753097278" x="382846.13" y="5819128.04" z="0.00" type="priority" />
	<node id="1753097282" x="382839.59" y="5819139.23" z="0.00" type="priority" />
	<node id="1753097288" x="382744.68" y="5819155.70" z="0.00" type="priority" />
	<node id="1765900099" x="382678.68" y="5819165.53" z="0.00" type="priority" />
	<node id="1766257737" x="382649.53" y="5819107.85" z="0.00" type="priority" />
	<node id="1766338484" x="382421.02" y="5819213.85" z="0.00" type="priority" />
	<node id="1768812121" x="383387.88" y="5819104.64" z="0.00" type="priority" />
	<node id="1768812123" x="383403.30" y="5819104.83" z="0.00" type="priority" />
	<node id="1940160827" x="382881.22" y="5819119.68" z="0.00" type="traffic_light" />
	<node id="1940175016" x="382656.88" y="5819076.66" z="0.00" type="priority" />
	<node id="1940175018" x="382694.08" y="5819182.30" z="0.00" type="priority" />
	<node id="21487105" x="383491.43" y="5820095.38" z="0.00" type="priority" />
	<node id="21487141" x="383401.75" y="5819161.05" z="0.00" type="priority" />
	<node id="2211233708" x="383296.93" y="5820335.32" z="0.00" type="priority" />
	<node id="2296386929" x="383304.16" y="5820237.07" z="0.00" type="priority" />
	<node id="2296386930" x="383303.70" y="5820244.13" z="0.00" type="priority" />
	<node id="2395462184" x="382299.09" y="5819027.73" z="0.00" type="priority" />
	<node id="2395462218" x="382304.64" y="5819046.66" z="0.00" type="priority" />
	<node id="256724098" x="381988.91" y="5819892.69" z="0.00" type="priority" />
	<node id="256724544" x="382010.43" y="5819960.48" z="0.00" type="priority" />
	<node id="2608049635" x="383519.70" y="5819883.97" z="0.00" type="priority" />
	<node id="26708459" x="383402.57" y="5819144.11" z="0.00" type="priority" />
	<node id="26745960" x="383386.73" y="5819142.66" z="0.00" type="priority" />
	<node id="26745961" x="383385.94" y="5819159.82" z="0.00" type="priority" />
	<node id="26745966" x="383122.62" y="5819121.28" z="0.00" type="priority" />
	<node id="26745967" x="383117.18" y="5819137.45" z="0.00" type="priority" />
	<node id="26745968" x="383252.90" y="5819148.42" z="0.00" type="priority" />
	<node id="26745969" x="383254.65" y="5819131.83" z="0.00" type="priority" />
	<node id="26785769" x="383397.16" y="5819262.44" z="0.00" type="priority" />
	<node id="26785770" x="383379.76" y="5819260.51" z="0.00" type="priority" />
	<node id="26785772" x="383383.83" y="5819467.54" z="0.00" type="priority" />
	<node id="26785774" x="383368.84" y="5819466.52" z="0.00" type="priority" />
	<node id="26785775" x="383054.11" y="5819448.43" z="0.00" type="priority" />
	<node id="26785776" x="383091.95" y="5819230.65" z="0.00" type="priority" />
	<node id="26785778" x="383242.72" y="5819246.62" z="0.00" type="priority" />
	<node id="26785788" x="383300.24" y="5820080.14" z="0.00" type="priority" />
	<node id="26785789" x="383316.30" y="5820081.73" z="0.00" type="priority" />
	<node id="26785790" x="383315.12" y="5820096.08" z="0.00" type="priority" />
	<node id="26785791" x="383299.28" y="5820094.67" z="0.00" type="priority" />
	<node id="26785796" x="383488.32" y="5820109.61" z="0.00" type="priority" />
	<node id="26785799" x="383223.80" y="5820073.04" z="0.00" type="priority" />
	<node id="26785800" x="383189.48" y="5820077.72" z="0.00" type="priority" />
	<node id="26785801" x="383193.13" y="5820091.93" z="0.00" type="priority" />
	<node id="26785807" x="383349.70" y="5819923.12" z="0.00" type="priority" />
	<node id="26785810" x="383439.44" y="5819899.19" z="0.00" type="priority" />
	<node id="26785816" x="383514.06" y="5819986.04" z="0.00" type="priority" />
	<node id="26785818" x="383359.90" y="5819581.01" z="0.00" type="priority" />
	<node id="26835976" x="383300.49" y="5820294.05" z="0.00" type="priority" />
	<node id="26868072" x="383384.09" y="5818927.62" z="0.00" type="priority" />
	<node id="26868074" x="383391.50" y="5818944.54" z="0.00" type="traffic_light" />
	<node id="26868601" x="383155.54" y="5819003.59" z="0.00" type="priority" />
	<node id="26868602" x="383266.10" y="5819008.30" z="0.00" type="priority" />
	<node id="26868604" x="383381.81" y="5819015.45" z="0.00" type="priority" />
	<node id="26904542" x="382831.86" y="5819053.07" z="0.00" type="priority" />
	<node id="26904543" x="382690.62" y="5819118.63" z="0.00" type="priority" />
	<node id="26904545" x="382716.16" y="5819174.17" z="0.00" type="priority" />
	<node id="26904546" x="382673.86" y="5819196.82" z="0.00" type="priority" />
	<node id="26904547" x="382594.90" y="5819082.36" z="0.00" type="priority" />
	<node id="26904552" x="382639.88" y="5819077.79" z="0.00" type="priority" />
	<node id="26904555" x="382493.02" y="5819076.87" z="0.00" type="priority" />
	<node id="26904556" x="382495.84" y="5819064.90" z="0.00" type="priority" />
	<node id="26904559" x="382844.70" y="5819090.25" z="0.00" type="priority" />
	<node id="26904677" x="382916.08" y="5818964.85" z="0.00" type="priority" />
	<node id="26904682" x="382526.05" y="5819347.79" z="0.00" type="priority" />
	<node id="26904683" x="382612.22" y="5819259.92" z="0.00" type="priority" />
	<node id="26904684" x="382443.69" y="5819431.07" z="0.00" type="priority" />
	<node id="26904685" x="382353.11" y="5819523.28" z="0.00" type="priority" />
	<node id="26904686" x="382519.18" y="5819326.12" z="0.00" type="priority" />
	<node id="26904687" x="382338.39" y="5819508.85" z="0.00" type="priority" />
	<node id="26904696" x="381990.99" y="5819025.86" z="0.00" type="priority" />
	<node id="26904724" x="382042.43" y="5819235.11" z="0.00" type="priority" />
	<node id="26904725" x="382155.36" y="5819341.41" z="0.00" type="priority" />
	<node id="26904730" x="381868.62" y="5819375.42" z="0.00" type="priority" />
	<node id="26904732" x="382500.84" y="5819615.67" z="0.00" type="priority" />
	<node id="26904733" x="382399.77" y="5819648.15" z="0.00" type="priority" />
	<node id="26904734" x="382599.19" y="5819584.58" z="0.00" type="priority" />
	<node id="26904735" x="382810.51" y="5819519.36" z="0.00" type="priority" />
	<node id="26904736" x="382729.53" y="5819263.93" z="0.00" type="priority" />
	<node id="26904737" x="382885.80" y="5819214.65" z="0.00" type="priority" />
	<node id="26904738" x="382763.88" y="5819371.50" z="0.00" type="priority" />
	<node id="26904739" x="382919.18" y="5819320.14" z="0.00" type="priority" />
	<node id="26904740" x="382775.26" y="5819408.44" z="0.00" type="priority" />
	<node id="26904741" x="382566.84" y="5819479.03" z="0.00" type="priority" />
	<node id="26904742" x="382669.99" y="5819444.51" z="0.00" type="priority" />
	<node id="26904743" x="382623.15" y="5819658.58" z="0.00" type="priority" />
	<node id="26904744" x="382832.65" y="5819592.02" z="0.00" type="priority" />
	<node id="26904745" x="382423.01" y="5819723.81" z="0.00" type="priority" />
	<node id="26904747" x="382965.47" y="5819469.32" z="0.00" type="priority" />
	<node id="26905407" x="382652.44" y="5819077.38" z="0.00" type="priority" />
	<node id="269843733" x="382110.13" y="5819816.88" z="0.00" type="priority" />
	<node id="269843734" x="382070.50" y="5819807.25" z="0.00" type="priority" />
	<node id="269843737" x="382019.82" y="5819950.71" z="0.00" type="priority" />
	<node id="269843739" x="382044.87" y="5819927.58" z="0.00" type="priority" />
	<node id="269843745" x="382164.53" y="5819808.08" z="0.00" type="priority" />
	<node id="270020877" x="383351.08" y="5819709.81" z="0.00" type="priority" />
	<node id="270021964" x="383333.46" y="5819922.75" z="0.00" type="priority" />
	<node id="27559323" x="382988.17" y="5819542.25" z="0.00" type="priority" />
	<node id="27559329" x="383049.04" y="5819732.83" z="0.00" type="priority" />
	<node id="27559334" x="383019.40" y="5819639.64" z="0.00" type="priority" />
	<node id="27559341" x="382863.79" y="5819689.29" z="0.00" type="priority" />
	<node id="27559344" x="382893.04" y="5819783.30" z="0.00" type="priority" />
	<node id="27559347" x="382926.40" y="5819889.26" z="0.00" type="priority" />
	<node id="27559350" x="383082.60" y="5819838.98" z="0.00" type="priority" />
	<node id="27559356" x="383064.55" y="5819942.91" z="0.00" type="priority" />
	<node id="27559365" x="383095.22" y="5819880.04" z="0.00" type="priority" />
	<node id="27559376" x="383124.54" y="5819971.50" z="0.00" type="priority" />
	<node id="27559381" x="383138.19" y="5820015.32" z="0.00" type="priority" />
	<node id="27559392" x="382982.23" y="5820064.68" z="0.00" type="priority" />
	<node id="27559395" x="382956.37" y="5819980.85" z="0.00" type="priority" />
	<node id="27559402" x="382716.55" y="5819956.95" z="0.00" type="priority" />
	<node id="27559406" x="382699.63" y="5819904.53" z="0.00" type="priority" />
	<node id="27559415" x="382667.05" y="5819797.14" z="0.00" type="priority" />
	<node id="27559420" x="382737.05" y="5819833.63" z="0.00" type="priority" />
	<node id="27559428" x="382630.05" y="5819868.22" z="0.00" type="priority" />
	<node id="27559433" x="382654.22" y="5819756.33" z="0.00" type="priority" />
	<node id="27559471" x="382746.07" y="5820048.49" z="0.00" type="priority" />
	<node id="27559476" x="382772.32" y="5820133.05" z="0.00" type="priority" />
	<node id="27559579" x="383160.24" y="5820087.12" z="0.00" type="priority" />
	<node id="27559580" x="383164.05" y="5820101.34" z="0.00" type="priority" />
	<node id="27559582" x="382794.86" y="5820204.76" z="0.00" type="priority" />
	<node id="27559583" x="382594.29" y="5820269.29" z="0.00" type="priority" />
	<node id="27559585" x="382430.36" y="5820322.04" z="0.00" type="priority" />
	<node id="27559587" x="382407.41" y="5820250.32" z="0.00" type="priority" />
	<node id="27559588" x="382571.10" y="5820197.80" z="0.00" type="priority" />
	<node id="27559589" x="382544.99" y="5820112.85" z="0.00" type="priority" />
	<node id="27559590" x="382516.88" y="5820021.39" z="0.00" type="priority" />
	<node id="27559591" x="382351.72" y="5820074.77" z="0.00" type="priority" />
	<node id="27559592" x="382380.28" y="5820165.52" z="0.00" type="priority" />
	<node id="27559594" x="382454.06" y="5819821.16" z="0.00" type="priority" />
	<node id="27559595" x="382483.47" y="5819915.89" z="0.00" type="priority" />
	<node id="27559596" x="382318.53" y="5819968.48" z="0.00" type="priority" />
	<node id="27559597" x="382259.01" y="5819777.52" z="0.00" type="priority" />
	<node id="27559623" x="382628.80" y="5819837.81" z="0.00" type="priority" />
	<node id="27559624" x="382107.82" y="5819929.67" z="0.00" type="priority" />
	<node id="27559625" x="382018.19" y="5819922.10" z="0.00" type="priority" />
	<node id="27559626" x="381994.47" y="5819949.52" z="0.00" type="priority" />
	<node id="27559627" x="382007.87" y="5820069.02" z="0.00" type="priority" />
	<node id="27559628" x="382049.67" y="5820171.96" z="0.00" type="priority" />
	<node id="27559629" x="381969.85" y="5820185.97" z="0.00" type="priority" />
	<node id="27559632" x="381885.37" y="5820155.09" z="0.00" type="priority" />
	<node id="27559635" x="381963.43" y="5819922.97" z="0.00" type="priority" />
	<node id="27559636" x="381946.45" y="5819908.12" z="0.00" type="priority" />
	<node id="27559637" x="382109.42" y="5820324.36" z="0.00" type="priority" />
	<node id="27559638" x="382086.25" y="5820261.34" z="0.00" type="priority" />
	<node id="27559810" x="382009.37" y="5819870.04" z="0.00" type="priority" />
	<node id="27559811" x="382154.80" y="5819722.48" z="0.00" type="priority" />
	<node id="27559812" x="382235.31" y="5819701.43" z="0.00" type="priority" />
	<node id="27559813" x="382206.56" y="5819671.74" z="0.00" type="priority" />
	<node id="27559818" x="381906.36" y="5819728.81" z="0.00" type="priority" />
	<node id="27559819" x="381922.33" y="5819723.59" z="0.00" type="priority" />
	<node id="27560039" x="382135.10" y="5819718.53" z="0.00" type="priority" />
	<node id="27561135" x="382462.42" y="5818874.56" z="0.00" type="priority" />
	<node id="275725785" x="381973.63" y="5819055.64" z="0.00" type="priority" />
	<node id="275727121" x="382798.77" y="5819018.94" z="0.00" type="priority" />
	<node id="275727130" x="382709.45" y="5819184.70" z="0.00" type="priority" />
	<node id="275727132" x="382697.00" y="5819180.82" z="0.00" type="traffic_light" />
	<node id="275727138" x="382676.23" y="5819121.89" z="0.00" type="priority" />
	<node id="27587405" x="381928.63" y="5819874.28" z="0.00" type="priority" />
	<node id="27587406" x="381945.06" y="5819871.65" z="0.00" type="priority" />
	<node id="27587417" x="381881.96" y="5819467.31" z="0.00" type="priority" />
	<node id="27587423" x="381904.43" y="5819608.17" z="0.00" type="priority" />
	<node id="27587435" x="381870.38" y="5819047.54" z="0.00" type="priority" />
	<node id="27587436" x="381962.39" y="5819054.74" z="0.00" type="priority" />
	<node id="27587450" x="382219.85" y="5819075.25" z="0.00" type="priority" />
	<node id="27587484" x="382079.71" y="5819539.84" z="0.00" type="priority" />
	<node id="27587499" x="381945.28" y="5819456.43" z="0.00" type="priority" />
	<node id="27587518" x="382343.88" y="5819083.39" z="0.00" type="priority" />
	<node id="27587520" x="382491.24" y="5819094.98" z="0.00" type="priority" />
	<node id="27587523" x="382475.19" y="5819138.98" z="0.00" type="priority" />
	<node id="27587524" x="382476.56" y="5819178.17" z="0.00" type="priority" />
	<node id="27587525" x="382449.05" y="5819173.44" z="0.00" type="priority" />
	<node id="282763131" x="381979.68" y="5819037.61" z="0.00" type="priority" />
	<node id="282916316" x="381996.36" y="5819026.30" z="0.00" type="priority" />
	<node id="28381726" x="381973.66" y="5820331.90" z="0.00" type="priority" />
	<node id="28381730" x="381869.11" y="5820352.00" z="0.00" type="priority" />
	<node id="28552443" x="382141.55" y="5820415.69" z="0.00" type="priority" />
	<node id="28552445" x="382144.78" y="5820427.22" z="0.00" type="priority" />
	<node id="28552455" x="382008.00" y="5820458.30" z="0.00" type="priority" />
	<node id="28552457" x="382011.54" y="5820469.44" z="0.00" type="priority" />
	<node id="28552460" x="382192.13" y="5819657.06" z="0.00" type="priority" />
	<node id="28552463" x="382429.18" y="5819416.79" z="0.00" type="priority" />
	<node id="28552466" x="382598.31" y="5819245.99" z="0.00" type="priority" />
	<node id="28997946" x="382157.69" y="5820410.24" z="0.00" type="priority" />
	<node id="28997947" x="382129.59" y="5820338.55" z="0.00" type="priority" />
	<node id="28997949" x="382098.54" y="5820257.16" z="0.00" type="priority" />
	<node id="28997950" x="382065.74" y="5820166.84" z="0.00" type="priority" />
	<node id="28997951" x="382024.02" y="5820063.51" z="0.00" type="priority" />
	<node id="29137828" x="382307.79" y="5819352.61" z="0.00" type="priority" />
	<node id="29137831" x="382239.31" y="5819418.41" z="0.00" type="priority" />
	<node id="29272968" x="382279.12" y="5819044.67" z="0.00" type="priority" />
	<node id="29272976" x="382729.45" y="5819047.66" z="0.00" type="priority" />
	<node id="29272977" x="382819.19" y="5819001.64" z="0.00" type="priority" />
	<node id="29272980" x="381887.83" y="5819031.18" z="0.00" type="priority" />
	<node id="2956060676" x="382648.64" y="5819077.42" z="0.00" type="traffic_light" />
	<node id="297317751" x="382231.59" y="5820403.90" z="0.00" type="priority" />
	<node id="297319805" x="382161.95" y="5820422.40" z="0.00" type="priority" />
	<node id="29950195" x="382826.96" y="5819132.35" z="0.00" type="traffic_light" />
	<node id="30352323" x="383548.73" y="5819458.68" z="0.00" type="priority" />
	<node id="30482870" x="383404.49" y="5819057.44" z="0.00" type="traffic_light" />
	<node id="3388609532" x="381924.55" y="5819033.67" z="0.00" type="priority" />
	<node id="3388609533" x="382611.48" y="5819074.91" z="0.00" type="priority" />
	<node id="3394208194" x="382143.83" y="5819708.06" z="0.00" type="priority" />
	<node id="3394208195" x="382093.90" y="5819760.02" z="0.00" type="priority" />
	<node id="3404285925" x="382903.92" y="5819102.60" z="0.00" type="priority" />
	<node id="3425957819" x="383338.77" y="5819138.50" z="0.00" type="priority" />
	<node id="3425957820" x="383382.92" y="5819212.22" z="0.00" type="priority" />
	<node id="3458159453" x="383362.12" y="5819552.25" z="0.00" type="priority" />
	<node id="3458159454" x="383296.67" y="5820151.43" z="0.00" type="priority" />
	<node id="35973395" x="383164.55" y="5818839.60" z="0.00" type="priority" />
	<node id="370666476" x="382301.11" y="5819358.71" z="0.00" type="priority" />
	<node id="370666480" x="382216.46" y="5819281.88" z="0.00" type="priority" />
	<node id="3720324470" x="382776.41" y="5819157.71" z="0.00" type="priority" />
	<node id="380351208" x="381980.66" y="5819020.14" z="0.00" type="priority" />
	<node id="3805760903" x="382674.13" y="5819170.38" z="0.00" type="traffic_light" />
	<node id="3816959407" x="382831.15" y="5819037.56" z="0.00" type="priority" />
	<node id="3816959420" x="382864.82" y="5819100.06" z="0.00" type="priority" />
	<node id="3816959447" x="382812.14" y="5819041.10" z="0.00" type="traffic_light" />
	<node id="3816992320" x="382005.68" y="5819039.53" z="0.00" type="traffic_light" />
	<node id="3817028012" x="382661.70" y="5819094.80" z="0.00" type="traffic_light" />
	<node id="3817030586" x="382163.33" y="5819721.37" z="0.00" type="priority" />
	<node id="3951566063" x="382658.58" y="5819186.05" z="0.00" type="priority" />
	<node id="3951566064" x="382584.04" y="5819260.44" z="0.00" type="priority" />
	<node id="3951566065" x="382787.47" y="5819154.53" z="0.00" type="priority" />
	<node id="395272180" x="383113.06" y="5819563.21" z="0.00" type="priority" />
	<node id="395272181" x="383098.40" y="5819582.24" z="0.00" type="priority" />
	<node id="3959807542" x="381996.17" y="5819857.62" z="0.00" type="priority" />
	<node id="3959807544" x="381966.74" y="5819885.57" z="0.00" type="traffic_light" />
	<node id="3959807548" x="381970.13" y="5819913.89" z="0.00" type="traffic_light" />
	<node id="3959807549" x="381938.82" y="5819918.23" z="0.00" type="traffic_light" />
	<node id="3959807550" x="381953.59" y="5819914.26" z="0.00" type="traffic_light" />
	<node id="3959807551" x="381958.02" y="5819929.76" z="0.00" type="priority" />
	<node id="3959807552" x="381973.98" y="5819931.98" z="0.00" type="traffic_light" />
	<node id="3977932025" x="383289.71" y="5820418.91" z="0.00" type="priority" />
	<node id="4278181599" x="383478.73" y="5820094.56" z="0.00" type="traffic_light" />
	<node id="4285826095" x="383502.79" y="5819152.44" z="0.00" type="priority" />
	<node id="4286289674" x="383317.67" y="5820065.04" z="0.00" type="traffic_light" />
	<node id="4286289675" x="383284.52" y="5820078.62" z="0.00" type="traffic_light" />
	<node id="4286289676" x="383330.51" y="5820097.46" z="0.00" type="traffic_light" />
	<node id="4286289678" x="383375.22" y="5820101.03" z="0.00" type="priority" />
	<node id="4286289679" x="383298.28" y="5820109.70" z="0.00" type="traffic_light" />
	<node id="4286694331" x="381966.48" y="5819036.67" z="0.00" type="traffic_light" />
	<node id="439719496" x="382840.49" y="5819116.69" z="0.00" type="traffic_light" />
	<node id="4440620602" x="381938.20" y="5819951.66" z="0.00" type="priority" />
	<node id="4489578377" x="382503.37" y="5819341.78" z="0.00" type="traffic_light" />
	<node id="4489578378" x="382794.31" y="5819022.92" z="0.00" type="traffic_light" />
	<node id="4489578379" x="382832.83" y="5819029.93" z="0.00" type="traffic_light" />
	<node id="4489578380" x="382520.56" y="5819353.23" z="0.00" type="traffic_light" />
	<node id="4513891413" x="382741.81" y="5819044.44" z="0.00" type="traffic_light" />
	<node id="459659148" x="382122.18" y="5820319.23" z="0.00" type="priority" />
	<node id="459659150" x="382116.67" y="5820343.14" z="0.00" type="priority" />
	<node id="459661987" x="382455.75" y="5820141.66" z="0.00" type="priority" />
	<node id="459663516" x="382941.13" y="5819884.46" z="0.00" type="priority" />
	<node id="459663517" x="382969.85" y="5819976.20" z="0.00" type="priority" />
	<node id="459663518" x="382941.13" y="5819985.77" z="0.00" type="priority" />
	<node id="459663519" x="382912.96" y="5819893.51" z="0.00" type="priority" />
	<node id="459663520" x="382998.06" y="5820059.63" z="0.00" type="priority" />
	<node id="459663521" x="383022.40" y="5820131.44" z="0.00" type="priority" />
	<node id="459663522" x="383022.90" y="5819651.24" z="0.00" type="priority" />
	<node id="459663523" x="383110.27" y="5819623.70" z="0.00" type="priority" />
	<node id="459663524" x="383027.05" y="5820145.64" z="0.00" type="priority" />
	<node id="46494606" x="383248.84" y="5820075.21" z="0.00" type="priority" />
	<node id="46494622" x="383091.88" y="5819561.47" z="0.00" type="priority" />
	<node id="4825582775" x="382171.60" y="5820419.67" z="0.00" type="priority" />
	<node id="4825582776" x="382207.94" y="5820410.50" z="0.00" type="priority" />
	<node id="4851915368" x="382201.13" y="5819902.68" z="0.00" type="priority" />
	<node id="487673623" x="383381.15" y="5818897.07" z="0.00" type="priority" />
	<node id="487689287" x="383395.10" y="5819052.74" z="0.00" type="priority" />
	<node id="487689875" x="383387.99" y="5819097.50" z="0.00" type="priority" />
	<node id="487691779" x="383413.46" y="5819145.19" z="0.00" type="priority" />
	<node id="500888009" x="383404.03" y="5820088.97" z="0.00" type="priority" />
	<node id="5095648768" x="382627.14" y="5819076.33" z="0.00" type="priority" />
	<node id="5168686734" x="381905.18" y="5820491.03" z="0.00" type="priority" />
	<node id="5183083023" x="382175.93" y="5820418.48" z="0.00" type="traffic_light" />
	<node id="5183083024" x="382150.99" y="5820395.67" z="0.00" type="traffic_light" />
	<node id="5183083025" x="382129.58" y="5820419.74" z="0.00" type="traffic_light" />