<connections>
	<connection from="493264401_27559433_27559594" to="493264401_27559594_27559433" />
	<connection from="493264401_27559433_27559594" to="4515876_27559594_27559595" />
	<connection from="493264401_27559433_27559594" to="4515876_27559594_26904745" />
	<connection from="493264401_27559433_27559594" to="1365468394_27559594_10125344509" />
	<connection from="1161088901_3977932025_6990334154" to="1161088901_6990334154_3977932025" />
	<connection from="1128470187_26904685_26904733" to="1316918014_26904733_26904732" />
	<connection from="1128470187_26904685_26904733" to="1128470187_26904733_26904685" />
	<connection from="1128470187_26904685_26904733" to="1128470186_26904733_26904745" />
	<connection from="1128470187_26904685_26904733" to="1128470125_26904733_27559812" />
	<connection from="973919633_26904543_3817028012" to="973919633_3817028012_1646685034" />
	<connection from="34412630_26785790_26785791" to="1101066494_26785791_10076915437" />
	<connection from="34412630_26785790_26785791" to="4453043_26785791_26785788" />
	<connection from="1116995911_10215652788_26745968" to="1116995921_26745968_10215722431" />
	<connection from="1092670187_10006900412_10006929801" to="38763875_10006929801_459663523" />
	<connection from="1092670187_10006900412_10006929801" to="1092670187_10006929801_10006900412" />
	<connection from="332306830_16541457_256724098" to="1105017108_256724098_27559625" />
	<connection from="332306830_16541457_256724098" to="181088810_256724098_3959807548" />
	<connection from="1116995928_10215775686_26904736" to="1092670193_26904736_26904738" />
	<connection from="1116995928_10215775686_26904736" to="4480545_26904736_26904737" />
	<connection from="1112717172_26785799_46494606" to="328440060_46494606_4286289675" />
	<connection from="1112717172_26785799_46494606" to="1200600897_46494606_11131955759" />
	<connection from="1111601489_27559323_26904744" to="1111601489_26904744_10169896971" />
	<connection from="1111601489_27559323_26904744" to="38763871_26904744_26904735" />
	<connection from="1111601489_27559323_26904744" to="1111601489_26904744_27559323" />
	<connection from="1111601489_27559323_26904744" to="38763871_26904744_27559341" />
	<connection from="1102317489_1766257737_27587520" to="1102317489_27587520_27587518" />
	<connection from="1102317489_1766257737_27587520" to="4871606_27587520_26904555" />
	<connection from="1102317489_1766257737_27587520" to="1031620951_27587520_27587523" />
	<connection from="183614200_27559813_27559812" to="1128470125_27559812_26904733" />
	<connection from="183614200_27559813_27559812" to="978609677_27559812_6238304461" />
	<connection from="183614200_27559813_27559812" to="1106498885_27559812_27559597" />
	<connection from="971877832_11133489564_28552457" to="971877832_28552457_11133489564" />
	<connection from="971877832_11133489564_28552457" to="1367279179_28552457_1387147593" />
	<connection from="971877832_11133489564_28552457" to="971877832_28552457_28552455" />
	<connection from="25204786_10170127336_3959807549" to="25204786_3959807549_9052387608" />
	<connection from="4515878_27559402_27559471" to="4515878_27559471_27559402" />
	<connection from="4515878_27559402_27559471" to="4515878_27559471_27559476" />
	<connection from="4515878_27559402_27559471" to="1092670162_27559471_27559589" />
	<connection from="4515878_27559402_27559471" to="4515873_27559471_459663518" />
	<connection from="38763875_10006929801_459663523" to="38763875_459663523_10006929801" />
	<connection from="38763875_10006929801_459663523" to="4609226_459663523_11131955759" />
	<connection from="38763875_10006929801_459663523" to="1089672262_459663523_395272181" />
	<connection from="1370111223_533626128_1768812123" to="335487064_1768812123_5784675055" />
	<connection from="493264401_27559433_27559341" to="38763871_27559341_26904744" />
	<connection from="493264401_27559433_27559341" to="38763871_27559341_27559344" />
	<connection from="493264401_27559433_27559341" to="493264401_27559341_27559433" />
	<connection from="493264401_27559433_27559341" to="493264401_27559341_27559334" />
	<connection from="38763874_459663520_459663521" to="38763874_459663521_459663520" />
	<connection from="38763874_459663520_459663521" to="1092670178_459663521_27559579" />
	<connection from="38763874_459663520_459663521" to="49576670_459663521_459663524" />
	<connection from="4480547_26904742_26904683" to="1111782352_26904683_10171430009" />
	<connection from="4480547_26904742_26904683" to="4604853_26904683_28552466" />
	<connection from="4480547_26904742_26904683" to="4480547_26904683_26904742" />
	<connection from="1105017035_269843734_12644254155" to="1105017035_12644254155_27559810" />
	<connection from="1111782353_10171462644_4489578377" to="1111782353_4489578377_26904686" />
	<connection from="4604852_28552463_26904684" to="4515877_26904684_26904732" />
	<connection from="4604852_28552463_26904684" to="333310717_26904684_26904685" />
	<connection from="4604852_28552463_26904684" to="4604852_26904684_28552463" />
	<connection from="1365468395_27559428_27559595" to="4515876_27559595_27559590" />
	<connection from="1365468395_27559428_27559595" to="4515876_27559595_27559594" />
	<connection from="1365468395_27559428_27559595" to="1365468395_27559595_27559428" />
	<connection from="1365468395_27559428_27559595" to="183614195_27559595_27559596" />
	<connection from="1200593490_26785818_11132012897" to="5820845_11132012897_395272180" />
	<connection from="1200593490_26785818_11132012897" to="1200593490_11132012897_26785818" />
	<connection from="4515881_27559395_27559392" to="4515881_27559392_27559395" />
	<connection from="4515881_27559395_27559392" to="38763327_27559392_27559476" />
	<connection from="4515881_27559395_27559392" to="38763327_27559392_459663520" />
	<connection from="4609227_26868601_8392002057" to="4609227_8392002057_26868601" />
	<connection from="1101066499_26785790_10076905921" to="4453041_10076905921_2296386929" />
	<connection from="4609230_26785776_26785778" to="4609230_26785778_26785776" />
	<connection from="4609230_26785776_26785778" to="4609230_26785778_11131980924" />
	<connection from="4609230_26785776_26785778" to="4609229_26785778_9146906871" />
	<connection from="23708824_256724544_28997951" to="1365468004_28997951_27559596" />
	<connection from="23708824_256724544_28997951" to="183614193_28997951_27559627" />
	<connection from="23708824_256724544_28997951" to="23708824_28997951_28997950" />
	<connection from="4616167_26785816_26785810" to="445492242_26785810_2608049635" />
	<connection from="4616167_26785816_26785810" to="4616167_26785810_26785816" />
	<connection from="4616167_26785816_26785810" to="445492242_26785810_26785807" />
	<connection from="4515878_27559471_27559476" to="4515878_27559476_27559471" />
	<connection from="4515878_27559471_27559476" to="38763327_27559476_27559588" />
	<connection from="4515878_27559471_27559476" to="38763327_27559476_27559392" />
	<connection from="4515878_27559471_27559476" to="4515878_27559476_27559582" />
	<connection from="335487064_1768812123_5784675055" to="335487064_5784675055_10076421651" />
	<connection from="1092670162_27559471_27559589" to="4515876_27559589_27559590" />
	<connection from="1092670162_27559471_27559589" to="1092670162_27559589_27559471" />
	<connection from="1092670162_27559471_27559589" to="4515876_27559589_27559588" />
	<connection from="29277836_1753097247_16541474" to="970060014_16541474_29272976" />
	<connection from="1133052826_27559813_9055020173" to="411114885_9055020173_6238304457" />
	<connection from="333310717_26904684_26904685" to="333310717_26904685_27559813" />
	<connection from="333310717_26904684_26904685" to="4604848_26904685_26904687" />
	<connection from="333310717_26904684_26904685" to="1128470187_26904685_26904733" />
	<connection from="1104731316_27587524_27587523" to="1031620951_27587523_27587520" />
	<connection from="1104731316_27587524_27587523" to="1104731316_27587523_27587524" />
	<connection from="1104731316_27587524_27587523" to="304338418_27587523_27587525" />
	<connection from="415288173_3951566063_16541467" to="42275711_16541467_527332338" />
	<connection from="415288173_3951566063_16541467" to="415288173_16541467_3805760903" />
	<connection from="1101008230_10076434582_1768812121" to="1370111222_1768812121_487689875" />
	<connection from="1092670151_27559592_459661987" to="1092670151_459661987_27559592" />
	<connection from="151822550_1646685034_26904547" to="151822548_26904547_1735542978" />
	<connection from="1092670120_28997946_297319805" to="490373688_297319805_28552445" />
	<connection from="1056642945_26904687_29137831" to="1056642945_29137831_26904687" />
	<connection from="1056642945_26904687_29137831" to="4604844_29137831_27587484" />
	<connection from="1056642945_26904687_29137831" to="4604844_29137831_370666476" />
	<connection from="1056642945_26904687_29137831" to="24837179_29137831_26904725" />
	<connection from="24837181_269843739_269843737" to="4515869_269843737_256724544" />
	<connection from="978609677_27559812_6238304461" to="978609677_6238304461_3817030586" />
	<connection from="978609677_27559812_6238304461" to="978609677_6238304461_27559812" />
	<connection from="4604851_26904682_26904686" to="4604850_26904686_27587524" />
	<connection from="4604851_26904682_26904686" to="4604851_26904686_26904682" />
	<connection from="4604851_26904682_26904686" to="1011564761_26904686_3951566064" />
	<connection from="1111610429_27559433_27559415" to="4515880_27559415_27559420" />
	<connection from="1111610429_27559433_27559415" to="1111610429_27559415_27559433" />
	<connection from="35583999_10180759097_6146108399" to="5820883_6146108399_26785818" />
	<connection from="35583999_10180759097_6146108399" to="35583999_6146108399_26785807" />
	<connection from="863190955_1753097275_1753097278" to="183614208_1753097278_1753097282" />
	<connection from="850742955_12074026049_10169831366" to="1111598177_10169831366_26904737" />
	<connection from="1101008047_6146108396_26785774" to="4515857_26785774_26785772" />
	<connection from="1101008047_6146108396_26785774" to="1101007793_26785774_10076419172" />
	<connection from="1101008047_6146108396_26785774" to="1101008029_26785774_10076439469" />
	<connection from="1111601488_10169896970_10169896971" to="1111601489_10169896971_26904744" />
	<connection from="1111601488_10169896970_10169896971" to="1111601488_10169896971_10169896970" />
	<connection from="4480545_26904736_26904737" to="1092670184_26904737_26904739" />
	<connection from="4480545_26904736_26904737" to="4480545_26904737_26904736" />
	<connection from="4480545_26904736_26904737" to="1111598181_26904737_26785776" />
	<connection from="4609228_10674656455_26745969" to="4609228_26745969_10674656455" />
	<connection from="4609228_10674656455_26745969" to="333310715_26745969_3425957819" />
	<connection from="1112707873_10180758429_6146108395" to="1112707873_6146108395_10076448388" />
	<connection from="1111601489_26904744_10169896971" to="1111601489_10169896971_26904744" />
	<connection from="1111601489_26904744_10169896971" to="1111601488_10169896971_10169896970" />
	<connection from="4515882_27559350_27559329" to="4515882_27559329_27559350" />
	<connection from="4515882_27559350_27559329" to="4515882_27559329_459663522" />
	<connection from="4515882_27559350_27559329" to="4515871_27559329_27559344" />
	<connection from="527596996_26904545_275727132" to="527596996_275727132_1940175018" />
	<connection from="38763871_27559344_27559347" to="183614209_27559347_459663516" />
	<connection from="38763871_27559344_27559347" to="38763871_27559347_27559344" />
	<connection from="38763871_27559344_27559347" to="183614209_27559347_459663519" />
	<connection from="1112702292_5183083023_4825582775" to="490373688_4825582775_297319805" />
	<connection from="1111601488_10169896971_10169896970" to="1111601488_10169896970_10169896971" />
	<connection from="1111601488_10169896971_10169896970" to="1111601499_10169896970_26904743" />
	<connection from="332306827_27559810_256724098" to="1105017108_256724098_27559625" />
	<connection from="332306827_27559810_256724098" to="181088810_256724098_3959807548" />
	<connection from="38763871_27559344_27559341" to="38763871_27559341_26904744" />
	<connection from="38763871_27559344_27559341" to="38763871_27559341_27559344" />
	<connection from="38763871_27559344_27559341" to="493264401_27559341_27559433" />
	<connection from="38763871_27559344_27559341" to="493264401_27559341_27559334" />
	<connection from="4515874_27559637_459659148" to="4515874_459659148_27559637" />
	<connection from="4515874_27559637_459659148" to="1092670134_459659148_28997947" />
	<connection from="1039425453_27559596_10125344509" to="1055108562_10125344509_9695322735" />
	<connection from="1039425453_27559596_10125344509" to="1365468394_10125344509_27559594" />
	<connection from="1039425453_27559596_10125344509" to="1039425453_10125344509_27559597" />
	<connection from="1039425453_27559596_10125344509" to="1039425453_10125344509_27559596" />
	<connection from="4609227_26868601_10238653343" to="4609227_10238653343_26868601" />
	<connection from="4609227_26868601_10238653343" to="1119424924_10238653343_10238684270" />
	<connection from="4515866_27560039_27559811" to="706790674_27559811_3817030586" />
	<connection from="1365468402_27559590_27559591" to="1039425453_27559591_27559592" />
	<connection from="1365468402_27559590_27559591" to="1092670150_27559591_28997950" />
	<connection from="1365468402_27559590_27559591" to="1365468402_27559591_27559590" />
	<connection from="1365468402_27559590_27559591" to="1039425453_27559591_27559596" />
	<connection from="1112708139_10180744465_26785770" to="1200589601_26785770_11131980924" />
	<connection from="1112708139_10180744465_26785770" to="40370498_26785770_26785769" />
	<connection from="1112708139_10180744465_26785770" to="1112708158_26785770_3425957820" />
	<connection from="4515857_26785772_26785774" to="4515857_26785774_26785772" />
	<connection from="4515857_26785772_26785774" to="1101007793_26785774_10076419172" />
	<connection from="4515857_26785772_26785774" to="1101008029_26785774_10076439469" />
	<connection from="4525444_30352323_6146108397" to="1101007944_6146108397_26785772" />
	<connection from="4525444_30352323_6146108397" to="4525444_6146108397_30352323" />
	<connection from="338690996_2296386929_3458159454" to="338690994_3458159454_4286289679" />
	<connection from="1106101618_10121283137_27559626" to="332306829_27559626_3959807552" />
	<connection from="24837179_29137831_26904725" to="4604842_26904725_370666480" />
	<connection from="24837179_29137831_26904725" to="24837179_26904725_29137831" />
	<connection from="24837179_29137831_26904725" to="24837179_26904725_26904724" />
	<connection from="24837179_29137831_26904725" to="4604842_26904725_27587499" />
	<connection from="1101007944_26785772_6146108397" to="1101007944_6146108397_26785772" />
	<connection from="1101007944_26785772_6146108397" to="4525444_6146108397_30352323" />
	<connection from="1056642945_29137831_26904687" to="1056642945_26904687_29137831" />
	<connection from="1056642945_29137831_26904687" to="4604848_26904687_26904685" />
	<connection from="1056642945_29137831_26904687" to="332306825_26904687_28552463" />
	<connection from="1168070110_3959807542_10121269309" to="181088809_10121269309_1114040971" />
	<connection from="102945288_3816992320_26904555" to="102945288_26904555_3816992320" />
	<connection from="102945288_3816992320_26904555" to="4871606_26904555_27587520" />
	<connection from="102945288_3816992320_26904555" to="161584630_26904555_1735542978" />
	<connection from="102945288_3816992320_26904555" to="161584629_26904555_1735542977" />
	<connection from="183614197_26785769_11131977713" to="1200589600_11131977713_11131980630" />
	<connection from="183614197_26785769_11131977713" to="183614197_11131977713_26785769" />
	<connection from="4604844_27587484_27587423" to="4604844_27587423_27587484" />
	<connection from="1146962811_10672978474_10238299230" to="1119424922_10238299230_26868602" />
	<connection from="1146962811_10672978474_10238299230" to="1146962811_10238299230_10672978474" />
	<connection from="971877832_28552457_11133489564" to="971877832_11133489564_28552457" />
	<connection from="527596998_3816959407_26904542" to="25204781_26904542_26904559" />
	<connection from="445492242_2608049635_26785810" to="445492242_26785810_2608049635" />
	<connection from="445492242_2608049635_26785810" to="4616167_26785810_26785816" />
	<connection from="445492242_2608049635_26785810" to="445492242_26785810_26785807" />
	<connection from="1365468394_10125344509_27559594" to="493264401_27559594_27559433" />
	<connection from="1365468394_10125344509_27559594" to="4515876_27559594_27559595" />
	<connection from="1365468394_10125344509_27559594" to="4515876_27559594_26904745" />
	<connection from="1365468394_10125344509_27559594" to="1365468394_27559594_10125344509" />
	<connection from="1092670183_27559376_27559365" to="1092670183_27559365_27559376" />
	<connection from="1092670183_27559376_27559365" to="1092670183_27559365_27559350" />
	<connection from="1092670183_27559376_27559365" to="4515883_27559365_27559356" />
	<connection from="38763875_459663523_10006929801" to="38763875_10006929801_459663523" />
	<connection from="38763875_459663523_10006929801" to="1092670187_10006929801_10006900412" />
	<connection from="490373688_297319805_28552445" to="1092670135_28552445_28552443" />
	<connection from="490373688_297319805_28552445" to="490373684_28552445_12662262229" />
	<connection from="183621694_4286694331_3388609532" to="331762106_3388609532_29272980" />
	<connection from="183621694_4286694331_3388609532" to="183621694_3388609532_4286694331" />
	<connection from="1161088901_6990334154_3977932025" to="1161088901_3977932025_6990334154" />
	<connection from="1161088901_6990334154_3977932025" to="1161088792_3977932025_2211233708" />
	<connection from="181088810_256724098_3959807548" to="181088810_3959807548_27559635" />
	<connection from="4604849_27587525_27587524" to="4604850_27587524_26904686" />
	<connection from="4604849_27587525_27587524" to="4604849_27587524_27587525" />
	<connection from="4604849_27587525_27587524" to="1104731316_27587524_27587523" />
	<connection from="1112707861_270020877_10180759096" to="1112707869_10180759096_26785818" />
	<connection from="5820845_395272180_11132012897" to="5820845_11132012897_395272180" />
	<connection from="5820845_395272180_11132012897" to="1200593490_11132012897_26785818" />
	<connection from="971877832_28552457_28552455" to="971877832_28552455_28552457" />
	<connection from="971877832_28552457_28552455" to="1147628330_28552455_5183083025" />
	<connection from="94455741_1097227997_16541457" to="1106498886_16541457_3959807542" />
	<connection from="94455741_1097227997_16541457" to="332306830_16541457_256724098" />
	<connection from="4515878_27559582_27559476" to="4515878_27559476_27559471" />
	<connection from="4515878_27559582_27559476" to="38763327_27559476_27559588" />
	<connection from="4515878_27559582_27559476" to="38763327_27559476_27559392" />
	<connection from="4515878_27559582_27559476" to="4515878_27559476_27559582" />
	<connection from="426917404_79808381_275727138" to="1099963601_275727138_1766257737" />
	<connection from="4515876_27559590_27559595" to="4515876_27559595_27559590" />
	<connection from="4515876_27559590_27559595" to="4515876_27559595_27559594" />
	<connection from="4515876_27559590_27559595" to="1365468395_27559595_27559428" />
	<connection from="4515876_27559590_27559595" to="183614195_27559595_27559596" />
	<connection from="25935855_26904696_16541478" to="102945288_16541478_3816992320" />
	<connection from="25935855_26904696_16541478" to="4068033_16541478_282763131" />
	<connection from="1039425453_27559597_10125344509" to="1055108562_10125344509_9695322735" />
	<connection from="1039425453_27559597_10125344509" to="1365468394_10125344509_27559594" />
	<connection from="1039425453_27559597_10125344509" to="1039425453_10125344509_27559597" />
	<connection from="1039425453_27559597_10125344509" to="1039425453_10125344509_27559596" />
	<connection from="1111782353_4489578377_26904686" to="4604850_26904686_27587524" />
	<connection from="1111782353_4489578377_26904686" to="4604851_26904686_26904682" />
	<connection from="1111782353_4489578377_26904686" to="1011564761_26904686_3951566064" />
	<connection from="1119424924_10238653343_10238684270" to="1119424922_10238684270_26868602" />
	<connection from="1119424924_10238653343_10238684270" to="1119424924_10238684270_10238653343" />
	<connection from="333310715_26745966_26745969" to="4609228_26745969_10674656455" />
	<connection from="333310715_26745966_26745969" to="333310715_26745969_3425957819" />
	<connection from="4604854_27560039_6238304462" to="4604854_6238304462_27560039" />
	<connection from="4604854_27560039_6238304462" to="4604854_6238304462_27559819" />
	<connection from="985571369_29272968_2395462184" to="231139209_2395462184_2395462218" />
	<connection from="985571369_29272968_2395462184" to="985571369_2395462184_29272968" />
	<connection from="985571369_29272968_2395462184" to="1112568205_2395462184_10178932892" />
	<connection from="706790674_3817030586_27559811" to="165041429_27559811_269843734" />
	<connection from="706790674_3817030586_27559811" to="706790674_27559811_3817030586" />
	<connection from="38763878_27559580_27559579" to="1092670178_27559579_26785800" />
	<connection from="38763878_27559580_27559579" to="1092670182_27559579_10006939457" />
	<connection from="38763878_27559580_27559579" to="38763878_27559579_27559580" />
	<connection from="1101003926_28997947_12227695189" to="1321415016_12227695189_5183083024" />
	<connection from="1039425453_27559591_27559592" to="1039425453_27559592_27559591" />
	<connection from="1039425453_27559591_27559592" to="183614201_27559592_28997949" />
	<connection from="1039425453_27559591_27559592" to="1039425453_27559592_27559587" />
	<connection from="1039425453_27559591_27559592" to="1092670151_27559592_459661987" />
	<connection from="4515876_27559590_27559589" to="4515876_27559589_27559590" />
	<connection from="4515876_27559590_27559589" to="1092670162_27559589_27559471" />
	<connection from="4515876_27559590_27559589" to="4515876_27559589_27559588" />
	<connection from="24851986_270021964_26785807" to="24851986_26785807_270021964" />
	<connection from="24851986_270021964_26785807" to="445492242_26785807_26785810" />
	<connection from="24851986_270021964_26785807" to="1112707825_26785807_1092698172" />
	<connection from="978609677_3817030586_6238304461" to="978609677_6238304461_3817030586" />
	<connection from="978609677_3817030586_6238304461" to="978609677_6238304461_27559812" />
	<connection from="454114098_26904677_4489578379" to="454114098_4489578379_3816959407" />
	<connection from="1116995921_26745968_10215722431" to="1116995835_10215722431_26745967" />
	<connection from="4604854_27559819_6238304462" to="4604854_6238304462_27560039" />
	<connection from="4604854_27559819_6238304462" to="4604854_6238304462_27559819" />
	<connection from="1102176150_1113899869_27587499" to="1102176150_27587499_1113899869" />
	<connection from="1102176150_1113899869_27587499" to="4604842_27587499_27587417" />
	<connection from="1102176150_1113899869_27587499" to="4604842_27587499_26904725" />
	<connection from="1039425453_27559591_27559596" to="1365468004_27559596_28997951" />
	<connection from="1039425453_27559591_27559596" to="1039425453_27559596_10125344509" />
	<connection from="1039425453_27559591_27559596" to="183614195_27559596_27559595" />
	<connection from="1039425453_27559591_27559596" to="1039425453_27559596_27559591" />
	<connection from="1200589600_11131977713_11131980630" to="1200589600_11131980630_11131977713" />
	<connection from="4446510_1092697792_270021964" to="24851986_270021964_26785807" />
	<connection from="4446510_1092697792_270021964" to="4446510_270021964_270020877" />
	<connection from="1056642838_26904730_26904724" to="4604847_26904724_27587450" />
	<connection from="1056642838_26904730_26904724" to="1056642838_26904724_26904730" />
	<connection from="1056642838_26904730_26904724" to="24837179_26904724_27587436" />
	<connection from="1056642838_26904730_26904724" to="24837179_26904724_26904725" />
	<connection from="4515873_27559471_459663518" to="4515873_459663518_27559395" />
	<connection from="4515873_27559471_459663518" to="4515873_459663518_27559471" />
	<connection from="4515873_27559471_459663518" to="38763873_459663518_459663519" />
	<connection from="25204781_26904542_26904559" to="151821673_26904559_10561958879" />
	<connection from="25204781_26904542_26904559" to="1232001043_26904559_11426958630" />
	<connection from="37541417_527332352_11426881943" to="1232000278_11426881943_16541468" />
	<connection from="1101003925_10076402622_459659150" to="1092670136_459659150_27559637" />
	<connection from="1101003925_10076402622_459659150" to="38763328_459659150_28997947" />
	<connection from="4515872_27559629_27559628" to="38763678_27559628_27559627" />
	<connection from="4515872_27559629_27559628" to="4515872_27559628_27559629" />
	<connection from="4515872_27559629_27559628" to="4584913_27559628_28997950" />
	<connection from="4515880_27559406_27559428" to="4515880_27559428_27559623" />
	<connection from="4515880_27559406_27559428" to="1365468395_27559428_27559595" />
	<connection from="1146962811_10238299230_10672978474" to="1146962811_10672978474_10238299230" />
	<connection from="1146962811_10238299230_10672978474" to="1119418893_10672978474_26868604" />
	<connection from="4480548_26904742_26904741" to="4480549_26904741_10170009835" />
	<connection from="4480548_26904742_26904741" to="4480549_26904741_10170009926" />
	<connection from="4480548_26904742_26904741" to="4480548_26904741_26904742" />
	<connection from="1092670183_27559350_27559365" to="1092670183_27559365_27559376" />
	<connection from="1092670183_27559350_27559365" to="1092670183_27559365_27559350" />
	<connection from="1092670183_27559350_27559365" to="4515883_27559365_27559356" />
	<connection from="4515858_6157149084_26785775" to="1089672262_26785775_6157149082" />
	<connection from="4515858_6157149084_26785775" to="1092670191_26785775_821083318" />
	<connection from="4515858_6157149084_26785775" to="593494706_26785775_6157149081" />
	<connection from="4515858_6157149084_26785775" to="4515858_26785775_6157149084" />
	<connection from="4604852_26904684_28552463" to="4604852_28552463_26904684" />
	<connection from="4604852_26904684_28552463" to="332306825_28552463_10171462644" />
	<connection from="4515869_256724544_27559626" to="332306829_27559626_3959807552" />
	<connection from="34412633_26785789_10076919019" to="1176346146_10076919019_10929699511" />
	<connection from="490373688_4825582775_297319805" to="490373688_297319805_28552445" />
	<connection from="38763327_27559588_27559476" to="4515878_27559476_27559471" />
	<connection from="38763327_27559588_27559476" to="38763327_27559476_27559588" />
	<connection from="38763327_27559588_27559476" to="38763327_27559476_27559392" />
	<connection from="38763327_27559588_27559476" to="4515878_27559476_27559582" />
	<connection from="1200600897_11131955759_46494606" to="328440060_46494606_4286289675" />
	<connection from="1200600897_11131955759_46494606" to="1200600897_46494606_11131955759" />
	<connection from="38763872_459663516_459663517" to="4515873_459663517_27559356" />
	<connection from="38763872_459663516_459663517" to="38763872_459663517_459663516" />
	<connection from="38763872_459663516_459663517" to="4515873_459663517_27559395" />
	<connection from="4480549_10170009835_26904741" to="4480549_26904741_10170009835" />
	<connection from="4480549_10170009835_26904741" to="4480549_26904741_10170009926" />
	<connection from="4480549_10170009835_26904741" to="4480548_26904741_26904742" />
	<connection from="183614209_459663516_27559350" to="183614209_27559350_459663516" />
	<connection from="183614209_459663516_27559350" to="4515882_27559350_27559329" />
	<connection from="183614209_459663516_27559350" to="1092670183_27559350_27559365" />
	<connection from="5820883_26785818_6146108399" to="5820883_6146108399_26785818" />
	<connection from="5820883_26785818_6146108399" to="35583999_6146108399_26785807" />
	<connection from="593494706_9052311220_26785776" to="593494706_26785776_6157149081" />
	<connection from="593494706_9052311220_26785776" to="593494706_26785776_9052311220" />
	<connection from="593494706_9052311220_26785776" to="1111598181_26785776_26904737" />
	<connection from="593494706_9052311220_26785776" to="4609230_26785776_26785778" />
	<connection from="1111601489_10169896971_26904744" to="1111601489_26904744_10169896971" />
	<connection from="1111601489_10169896971_26904744" to="38763871_26904744_26904735" />
	<connection from="1111601489_10169896971_26904744" to="1111601489_26904744_27559323" />
	<connection from="1111601489_10169896971_26904744" to="38763871_26904744_27559341" />
	<connection from="863190957_8041192109_1753097278" to="183614207_1753097278_10561958880" />
	<connection from="1092670183_27559376_27559381" to="1092670183_27559381_10006939457" />
	<connection from="1092670183_27559376_27559381" to="38763327_27559381_459663520" />
	<connection from="1092670183_27559376_27559381" to="1092670183_27559381_27559376" />
	<connection from="1367279179_12662262229_28552457" to="971877832_28552457_11133489564" />
	<connection from="1367279179_12662262229_28552457" to="1367279179_28552457_1387147593" />
	<connection from="1367279179_12662262229_28552457" to="971877832_28552457_28552455" />
	<connection from="1092670134_459659148_28997947" to="1092670100_28997947_27559587" />
	<connection from="1092670134_459659148_28997947" to="1101003926_28997947_12227695189" />
	<connection from="1092670134_459659148_28997947" to="38763328_28997947_459659150" />