<?xml version="1.0" ?>
<!-- Generated by MOSAIC scenario-convert 18.0 -->
<routes>
	<vType id="TaxiSumo" vClass="taxi" personCapacity="8" maxSpeed="50">
		<param key="has.taxi.device" value="true"/>
		<param key="device.taxi.pickUpDuration" value="20"/>
		<param key="device.taxi.dropOffDuration" value="60"/>
	</vType>

	<route id="1" edges="1092670150_27559591_28997950 4584913_28997950_27559628 38763678_27559628_27559627 38763678_27559627_10121283137 1106101618_10121283137_27559626 332306829_27559626_3959807552 332306829_3959807552_9052387609 1133052827_9052387609_27559635 4604862_27559635_3959807550 4604862_3959807550_27559636 973230763_27559636_3959807544 973230763_3959807544_16541457 1106498886_16541457_3959807542 1168070110_3959807542_10121269309 181088809_10121269309_1114040971 181088809_1114040971_10863131324 1168070111_10863131324_3394208195 332306826_3394208195_6238304464 332306826_6238304464_27560039 4515866_27560039_27559811 706790674_27559811_3817030586 978609677_3817030586_6238304461 978609677_6238304461_27559812 1128470125_27559812_26904733 1316918014_26904733_26904732 4515867_26904732_26904734 4515867_26904734_26904735 4515867_26904735_26904747 4515882_26904747_27559323 4515882_27559323_27559334 493264401_27559334_27559341" />
	<route id="2" edges="1092670150_27559591_28997950 4584913_28997950_27559628 38763678_27559628_27559627 183614193_27559627_28997951 1365468004_28997951_27559596 183614195_27559596_27559595 1365468395_27559595_27559428 4515880_27559428_27559623 4515880_27559623_27559415 1111610429_27559415_27559433 493264401_27559433_27559341 493264401_27559341_27559334 493264401_27559334_27559341" />
	<route id="3" edges="1092670150_27559591_28997950 1092670137_28997950_28997949 1092670137_28997949_459659148 1092670134_459659148_28997947 1101003926_28997947_12227695189 1321415016_12227695189_5183083024 1321415016_5183083024_10076403251 1092670120_10076403251_28997946 1112702296_28997946_10678420523 1147628331_10678420523_10180683867 1112702297_10180683867_27559585 328440058_27559585_27559583 328440058_27559583_27559582 328440058_27559582_10180666011 1112702312_10180666011_459663521 1092670178_459663521_27559579 1092670182_27559579_10006939457 1092670183_10006939457_27559381 1092670183_27559381_27559376 1092670183_27559376_27559365 1092670183_27559365_27559350 4515882_27559350_27559329 4515882_27559329_459663522 4515882_459663522_27559334 493264401_27559334_27559341" />

	<vehicle id="t1" type="TaxiSumo" route="1" depart="0.00" line="taxi"/>
	<vehicle id="t2" type="TaxiSumo" route="2" depart="0.00" line="taxi"/>
	<vehicle id="t3" type="TaxiSumo" route="3" depart="0.00" line="taxi"/>

	<person id="p1" depart="0.00" color="green">
		<ride from="4515866_27560039_27559811" busStop="bs3" lines="taxi"/>
	</person>
	<person id="p2" depart="0.00" color="red">
		<ride from="38763678_27559628_27559627" to="493264401_27559341_27559334" lines="taxi"/>
	</person>
	<person id="p3" depart="5.00" color="blue">
		<ride from="1092670137_28997950_28997949" to="4515882_27559329_459663522" lines="taxi"/>
	</person>
</routes>
