<edges>
	<edge id="493264401_27559433_27559594" from="27559433" to="27559594" numLanes="1" shape="382654.22,5819756.33,0.00 382648.55,5819758.18,0.00 382460.96,5819818.74,0.00 382454.06,5819821.16,0.00" speed="8.33" />
	<edge id="1102209246_27587405_27559818" from="27587405" to="27559818" numLanes="2" shape="381928.63,5819874.28,0.00 381926.74,5819861.87,0.00 381908.60,5819743.03,0.00 381907.44,5819735.68,0.00 381906.36,5819728.81,0.00" speed="13.89" />
	<edge id="1161088901_3977932025_6990334154" from="3977932025" to="6990334154" numLanes="1" shape="383289.71,5820418.91,0.00 383288.16,5820436.89,0.00 383283.54,5820490.31,0.00" speed="13.89" />
	<edge id="1128470187_26904685_26904733" from="26904685" to="26904733" numLanes="1" shape="382353.11,5819523.28,0.00 382358.60,5819528.26,0.00 382362.89,5819532.15,0.00 382368.23,5819549.27,0.00 382397.05,5819639.63,0.00 382399.77,5819648.15,0.00" speed="8.33" />
	<edge id="973919633_26904543_3817028012" from="26904543" to="3817028012" numLanes="3" shape="382690.62,5819118.63,0.00 382677.91,5819106.04,0.00 382674.42,5819102.68,0.00 382669.08,5819098.66,0.00 382664.12,5819095.86,0.00 382661.70,5819094.80,0.00" speed="13.89" />
	<edge id="34412630_26785790_26785791" from="26785790" to="26785791" numLanes="3" shape="383315.12,5820096.08,0.00 383299.28,5820094.67,0.00" speed="13.89" />
	<edge id="1116995911_10215652788_26745968" from="10215652788" to="26745968" numLanes="5" shape="383280.05,5819150.70,0.00 383252.90,5819148.42,0.00" speed="13.89" />
	<edge id="1092670187_10006900412_10006929801" from="10006900412" to="10006929801" numLanes="1" shape="383064.62,5819637.86,0.00 383078.06,5819633.77,0.00" speed="8.33" />
	<edge id="332306830_16541457_256724098" from="16541457" to="256724098" numLanes="2" shape="381974.42,5819877.85,0.00 381988.91,5819892.69,0.00" speed="13.89" />
	<edge id="1116995928_10215775686_26904736" from="10215775686" to="26904736" numLanes="2" shape="382708.30,5819196.28,0.00 382727.85,5819258.59,0.00 382729.53,5819263.93,0.00" speed="8.33" />
	<edge id="1112717172_26785799_46494606" from="26785799" to="46494606" numLanes="4" shape="383223.80,5820073.04,0.00 383248.84,5820075.21,0.00" speed="13.89" />
	<edge id="1111601489_27559323_26904744" from="27559323" to="26904744" numLanes="1" shape="382988.17,5819542.25,0.00 382983.52,5819543.74,0.00 382837.99,5819590.32,0.00 382832.65,5819592.02,0.00" speed="8.33" />
	<edge id="1102317489_1766257737_27587520" from="1766257737" to="27587520" numLanes="2" shape="382649.53,5819107.85,0.00 382647.06,5819107.42,0.00 382568.76,5819100.26,0.00 382503.10,5819095.85,0.00 382502.05,5819095.77,0.00 382491.24,5819094.98,0.00" speed="8.33" />
	<edge id="183614200_27559813_27559812" from="27559813" to="27559812" numLanes="2" shape="382206.56,5819671.74,0.00 382212.65,5819677.57,0.00 382228.38,5819692.93,0.00 382229.03,5819693.61,0.00 382229.86,5819694.37,0.00 382235.31,5819701.43,0.00" speed="8.33" />
	<edge id="971877832_11133489564_28552457" from="11133489564" to="28552457" numLanes="1" shape="382012.60,5820472.79,0.00 382011.54,5820469.44,0.00" speed="2.78" />
	<edge id="25204786_10170127336_3959807549" from="10170127336" to="3959807549" numLanes="2" shape="381923.26,5819939.75,0.00 381938.82,5819918.23,0.00" speed="13.89" />
	<edge id="4515878_27559402_27559471" from="27559402" to="27559471" numLanes="1" shape="382716.55,5819956.95,0.00 382718.24,5819962.21,0.00 382744.31,5820042.97,0.00 382746.07,5820048.49,0.00" speed="8.33" />
	<edge id="38763875_10006929801_459663523" from="10006929801" to="459663523" numLanes="1" shape="383078.06,5819633.77,0.00 383102.70,5819626.19,0.00 383110.27,5819623.70,0.00" speed="8.33" />
	<edge id="1370111223_533626128_1768812123" from="533626128" to="1768812123" numLanes="5" shape="383403.05,5819078.89,0.00 383403.30,5819104.83,0.00" speed="13.89" />
	<edge id="493264401_27559433_27559341" from="27559433" to="27559341" numLanes="1" shape="382654.22,5819756.33,0.00 382659.28,5819754.71,0.00 382792.55,5819712.10,0.00 382818.46,5819703.45,0.00 382822.55,5819702.12,0.00 382858.77,5819690.84,0.00 382863.79,5819689.29,0.00" speed="8.33" />
	<edge id="38763874_459663520_459663521" from="459663520" to="459663521" numLanes="1" shape="382998.06,5820059.63,0.00 382999.88,5820064.93,0.00 383012.77,5820102.46,0.00 383016.22,5820113.12,0.00 383019.04,5820121.47,0.00 383022.40,5820131.44,0.00" speed="8.33" />
	<edge id="4480547_26904742_26904683" from="26904742" to="26904683" numLanes="1" shape="382669.99,5819444.51,0.00 382668.20,5819438.77,0.00 382656.47,5819401.40,0.00 382654.12,5819393.91,0.00 382639.57,5819347.54,0.00 382631.62,5819322.20,0.00 382630.71,5819319.31,0.00 382615.49,5819270.81,0.00 382615.06,5819269.37,0.00 382612.22,5819259.92,0.00" speed="8.33" />
	<edge id="1105017035_269843734_12644254155" from="269843734" to="12644254155" numLanes="2" shape="382070.50,5819807.25,0.00 382064.98,5819812.91,0.00 382024.08,5819854.81,0.00 382012.06,5819867.26,0.00" speed="13.89" />
	<edge id="1111782353_10171462644_4489578377" from="10171462644" to="4489578377" numLanes="1" shape="382464.48,5819381.10,0.00 382490.21,5819355.08,0.00 382503.37,5819341.78,0.00" speed="13.89" />
	<edge id="4604852_28552463_26904684" from="28552463" to="26904684" numLanes="1" shape="382429.18,5819416.79,0.00 382443.69,5819431.07,0.00" speed="13.89" />
	<edge id="1365468395_27559428_27559595" from="27559428" to="27559595" numLanes="1" shape="382630.05,5819868.22,0.00 382624.84,5819869.91,0.00 382489.69,5819913.97,0.00 382483.47,5819915.89,0.00" speed="8.33" />
	<edge id="1200593490_26785818_11132012897" from="26785818" to="11132012897" numLanes="1" shape="383359.90,5819581.01,0.00 383350.42,5819580.33,0.00 383348.30,5819580.17,0.00" speed="8.33" />
	<edge id="4515881_27559395_27559392" from="27559395" to="27559392" numLanes="1" shape="382956.37,5819980.85,0.00 382957.78,5819985.59,0.00 382980.76,5820059.92,0.00 382982.23,5820064.68,0.00" speed="8.33" />
	<edge id="4609227_26868601_8392002057" from="26868601" to="8392002057" numLanes="1" shape="383155.54,5819003.59,0.00 383146.78,5819005.88,0.00 383136.49,5819008.58,0.00 383121.40,5819007.60,0.00" speed="8.33" />
	<edge id="1101066499_26785790_10076905921" from="26785790" to="10076905921" numLanes="2" shape="383315.12,5820096.08,0.00 383314.20,5820107.39,0.00 383313.68,5820113.66,0.00" speed="13.89" />
	<edge id="4609230_26785776_26785778" from="26785776" to="26785778" numLanes="1" shape="383091.95,5819230.65,0.00 383101.23,5819231.63,0.00 383235.24,5819245.83,0.00 383242.72,5819246.62,0.00" speed="8.33" />
	<edge id="23708824_256724544_28997951" from="256724544" to="28997951" numLanes="2" shape="382010.43,5819960.48,0.00 382009.80,5819963.83,0.00 382009.97,5819967.11,0.00 382010.07,5819969.09,0.00 382013.21,5820004.94,0.00 382015.32,5820026.79,0.00 382016.90,5820037.98,0.00 382019.45,5820049.08,0.00 382021.85,5820056.63,0.00 382024.02,5820063.51,0.00" speed="13.89" />
	<edge id="4616167_26785816_26785810" from="26785816" to="26785810" numLanes="1" shape="383514.06,5819986.04,0.00 383509.53,5819984.59,0.00 383499.62,5819981.72,0.00 383490.41,5819977.64,0.00 383481.78,5819972.85,0.00 383473.51,5819966.89,0.00 383466.80,5819960.89,0.00 383460.15,5819953.09,0.00 383454.33,5819944.06,0.00 383450.06,5819934.78,0.00 383446.00,5819923.59,0.00 383440.60,5819903.92,0.00 383439.44,5819899.19,0.00" speed="8.33" />
	<edge id="4515878_27559471_27559476" from="27559471" to="27559476" numLanes="1" shape="382746.07,5820048.49,0.00 382747.44,5820052.90,0.00 382753.46,5820072.28,0.00 382770.77,5820128.04,0.00 382772.32,5820133.05,0.00" speed="8.33" />
	<edge id="335487064_1768812123_5784675055" from="1768812123" to="5784675055" numLanes="5" shape="383403.30,5819104.83,0.00 383403.30,5819125.40,0.00" speed="13.89" />
	<edge id="1092670162_27559471_27559589" from="27559471" to="27559589" numLanes="1" shape="382746.07,5820048.49,0.00 382740.15,5820050.39,0.00 382550.70,5820111.04,0.00 382544.99,5820112.85,0.00" speed="8.33" />
	<edge id="29277836_1753097247_16541474" from="1753097247" to="16541474" numLanes="4" shape="382686.87,5819084.16,0.00 382687.87,5819079.96,0.00 382690.75,5819073.71,0.00 382695.74,5819066.00,0.00 382700.63,5819061.11,0.00" speed="13.89" />
	<edge id="1133052826_27559813_9055020173" from="27559813" to="9055020173" numLanes="2" shape="382206.56,5819671.74,0.00 382201.89,5819676.32,0.00 382187.57,5819690.36,0.00" speed="13.89" />
	<edge id="333310717_26904684_26904685" from="26904684" to="26904685" numLanes="1" shape="382443.69,5819431.07,0.00 382404.00,5819471.57,0.00 382359.33,5819517.10,0.00 382353.11,5819523.28,0.00" speed="13.89" />
	<edge id="1104731316_27587524_27587523" from="27587524" to="27587523" numLanes="1" shape="382476.56,5819178.17,0.00 382477.93,5819148.92,0.00 382475.19,5819138.98,0.00" speed="8.33" />
	<edge id="415288173_3951566063_16541467" from="3951566063" to="16541467" numLanes="3" shape="382658.58,5819186.05,0.00 382671.17,5819173.53,0.00" speed="13.89" />
	<edge id="1101008230_10076434582_1768812121" from="10076434582" to="1768812121" numLanes="3" shape="383387.37,5819127.01,0.00 383387.74,5819113.44,0.00 383387.88,5819104.64,0.00" speed="13.89" />
	<edge id="1092670151_27559592_459661987" from="27559592" to="459661987" numLanes="1" shape="382380.28,5820165.52,0.00 382385.16,5820164.00,0.00 382455.75,5820141.66,0.00" speed="8.33" />
	<edge id="151822550_1646685034_26904547" from="1646685034" to="26904547" numLanes="3" shape="382657.54,5819092.72,0.00 382651.33,5819090.95,0.00 382615.08,5819087.90,0.00 382594.90,5819082.36,0.00" speed="13.89" />
	<edge id="1092670120_28997946_297319805" from="28997946" to="297319805" numLanes="2" shape="382157.69,5820410.24,0.00 382161.95,5820422.40,0.00" speed="13.89" />
	<edge id="1056642945_26904687_29137831" from="26904687" to="29137831" numLanes="1" shape="382338.39,5819508.85,0.00 382334.23,5819504.97,0.00 382332.67,5819503.56,0.00 382307.33,5819480.63,0.00 382243.43,5819422.18,0.00 382239.31,5819418.41,0.00" speed="8.33" />
	<edge id="24837181_269843739_269843737" from="269843739" to="269843737" numLanes="2" shape="382044.87,5819927.58,0.00 382039.65,5819930.16,0.00 382034.87,5819934.06,0.00 382032.41,5819936.78,0.00 382019.82,5819950.71,0.00" speed="13.89" />
	<edge id="978609677_27559812_6238304461" from="27559812" to="6238304461" numLanes="1" shape="382235.31,5819701.43,0.00 382229.25,5819703.37,0.00 382178.26,5819719.71,0.00 382176.41,5819720.05,0.00" speed="13.89" />
	<edge id="4604851_26904682_26904686" from="26904682" to="26904686" numLanes="1" shape="382526.05,5819347.79,0.00 382524.77,5819343.76,0.00 382520.88,5819331.51,0.00 382519.18,5819326.12,0.00" speed="13.89" />
	<edge id="1111610429_27559433_27559415" from="27559433" to="27559415" numLanes="1" shape="382654.22,5819756.33,0.00 382655.55,5819760.58,0.00 382665.35,5819791.74,0.00 382667.05,5819797.14,0.00" speed="8.33" />
	<edge id="35583999_10180759097_6146108399" from="10180759097" to="6146108399" numLanes="2" shape="383380.50,5819518.70,0.00 383376.71,5819574.92,0.00 383376.23,5819582.06,0.00" speed="13.89" />
	<edge id="863190955_1753097275_1753097278" from="1753097275" to="1753097278" numLanes="2" shape="382848.96,5819116.54,0.00 382848.21,5819121.27,0.00 382847.26,5819124.71,0.00 382846.13,5819128.04,0.00" speed="13.89" />
	<edge id="850742955_12074026049_10169831366" from="12074026049" to="10169831366" numLanes="2" shape="382864.52,5819143.03,0.00 382865.15,5819145.47,0.00 382865.37,5819146.15,0.00 382868.25,5819155.74,0.00 382868.58,5819161.12,0.00" speed="8.33" />
	<edge id="1101008047_6146108396_26785774" from="6146108396" to="26785774" numLanes="3" shape="383367.63,5819481.94,0.00 383367.93,5819478.11,0.00 383368.84,5819466.52,0.00" speed="13.89" />
	<edge id="1111601488_10169896970_10169896971" from="10169896970" to="10169896971" numLanes="1" shape="382646.51,5819651.24,0.00 382668.96,5819644.08,0.00" speed="8.33" />
	<edge id="4480545_26904736_26904737" from="26904736" to="26904737" numLanes="1" shape="382729.53,5819263.93,0.00 382735.20,5819262.25,0.00 382841.59,5819228.13,0.00 382879.21,5819216.60,0.00 382885.80,5819214.65,0.00" speed="8.33" />
	<edge id="4609228_10674656455_26745969" from="10674656455" to="26745969" numLanes="1" shape="383255.89,5819118.45,0.00 383255.49,5819122.74,0.00 383254.65,5819131.83,0.00" speed="8.33" />
	<edge id="1112707873_10180758429_6146108395" from="10180758429" to="6146108395" numLanes="2" shape="383387.82,5819411.18,0.00 383385.61,5819443.82,0.00 383384.94,5819452.73,0.00" speed="13.89" />
	<edge id="1111601489_26904744_10169896971" from="26904744" to="10169896971" numLanes="1" shape="382832.65,5819592.02,0.00 382827.80,5819593.56,0.00 382689.01,5819637.71,0.00 382668.96,5819644.08,0.00" speed="8.33" />
	<edge id="4515882_27559350_27559329" from="27559350" to="27559329" numLanes="1" shape="383082.60,5819838.98,0.00 383081.15,5819834.30,0.00 383064.85,5819781.67,0.00 383056.94,5819757.22,0.00 383050.98,5819738.81,0.00 383049.04,5819732.83,0.00" speed="8.33" />
	<edge id="527596996_26904545_275727132" from="26904545" to="275727132" numLanes="2" shape="382716.16,5819174.17,0.00 382706.18,5819176.89,0.00 382697.00,5819180.82,0.00" speed="13.89" />
	<edge id="38763871_27559344_27559347" from="27559344" to="27559347" numLanes="1" shape="382893.04,5819783.30,0.00 382894.64,5819788.39,0.00 382924.91,5819884.52,0.00 382926.40,5819889.26,0.00" speed="8.33" />
	<edge id="1112702292_5183083023_4825582775" from="5183083023" to="4825582775" numLanes="4" shape="382175.93,5820418.48,0.00 382171.60,5820419.67,0.00" speed="13.89" />
	<edge id="1111601488_10169896971_10169896970" from="10169896971" to="10169896970" numLanes="1" shape="382668.96,5819644.08,0.00 382646.51,5819651.24,0.00" speed="8.33" />
	<edge id="332306827_27559810_256724098" from="27559810" to="256724098" numLanes="3" shape="382009.37,5819870.04,0.00 381991.27,5819890.08,0.00 381988.91,5819892.69,0.00" speed="13.89" />
	<edge id="38763871_27559344_27559341" from="27559344" to="27559341" numLanes="1" shape="382893.04,5819783.30,0.00 382891.42,5819778.09,0.00 382865.10,5819693.50,0.00 382863.79,5819689.29,0.00" speed="8.33" />
	<edge id="4515874_27559637_459659148" from="27559637" to="459659148" numLanes="1" shape="382109.42,5820324.36,0.00 382122.18,5820319.23,0.00" speed="13.89" />
	<edge id="1039425453_27559596_10125344509" from="27559596" to="10125344509" numLanes="1" shape="382318.53,5819968.48,0.00 382316.97,5819963.43,0.00 382290.74,5819878.59,0.00 382289.36,5819874.10,0.00" speed="8.33" />
	<edge id="4609227_26868601_10238653343" from="26868601" to="10238653343" numLanes="1" shape="383155.54,5819003.59,0.00 383164.66,5819001.42,0.00 383180.45,5819001.34,0.00" speed="8.33" />
	<edge id="4515866_27560039_27559811" from="27560039" to="27559811" numLanes="2" shape="382135.10,5819718.53,0.00 382138.53,5819719.64,0.00 382148.12,5819722.14,0.00 382154.80,5819722.48,0.00" speed="13.89" />
	<edge id="1365468402_27559590_27559591" from="27559590" to="27559591" numLanes="1" shape="382516.88,5820021.39,0.00 382511.17,5820023.19,0.00 382357.41,5820072.90,0.00 382351.72,5820074.77,0.00" speed="8.33" />
	<edge id="1112708139_10180744465_26785770" from="10180744465" to="26785770" numLanes="2" shape="383372.19,5819406.52,0.00 383376.16,5819325.99,0.00 383376.58,5819317.60,0.00 383379.28,5819269.21,0.00 383379.76,5819260.51,0.00" speed="13.89" />
	<edge id="4515857_26785772_26785774" from="26785772" to="26785774" numLanes="1" shape="383383.83,5819467.54,0.00 383368.84,5819466.52,0.00" speed="13.89" />
	<edge id="4525444_30352323_6146108397" from="30352323" to="6146108397" numLanes="1" shape="383548.73,5819458.68,0.00 383538.00,5819457.88,0.00 383527.55,5819457.50,0.00 383513.27,5819458.15,0.00 383502.42,5819459.39,0.00 383498.31,5819460.06,0.00 383490.09,5819461.49,0.00 383482.63,5819463.29,0.00 383463.97,5819467.95,0.00 383453.77,5819469.56,0.00 383445.55,5819470.46,0.00 383441.21,5819470.94,0.00 383429.27,5819471.09,0.00 383417.30,5819470.53,0.00 383399.32,5819469.07,0.00" speed="13.89" />
	<edge id="338690996_2296386929_3458159454" from="2296386929" to="3458159454" numLanes="3" shape="383304.16,5820237.07,0.00 383298.50,5820228.40,0.00 383297.94,5820213.80,0.00 383295.86,5820174.27,0.00 383296.67,5820151.43,0.00" speed="13.89" />
	<edge id="1106101618_10121283137_27559626" from="10121283137" to="27559626" numLanes="2" shape="381995.95,5819972.05,0.00 381995.72,5819968.47,0.00 381994.47,5819949.52,0.00" speed="13.89" />
	<edge id="24837179_29137831_26904725" from="29137831" to="26904725" numLanes="1" shape="382239.31,5819418.41,0.00 382234.22,5819413.73,0.00 382159.42,5819345.11,0.00 382155.36,5819341.41,0.00" speed="8.33" />
	<edge id="35584124_26868604_1666510868" from="26868604" to="1666510868" numLanes="3" shape="383381.81,5819015.45,0.00 383379.58,5819006.26,0.00 383375.44,5818994.21,0.00 383354.87,5818945.75,0.00" speed="13.89" />
	<edge id="1101007944_26785772_6146108397" from="26785772" to="6146108397" numLanes="1" shape="383383.83,5819467.54,0.00 383396.02,5819468.72,0.00 383399.32,5819469.07,0.00" speed="13.89" />
	<edge id="1056642945_29137831_26904687" from="29137831" to="26904687" numLanes="1" shape="382239.31,5819418.41,0.00 382243.43,5819422.18,0.00 382307.33,5819480.63,0.00 382332.67,5819503.56,0.00 382334.23,5819504.97,0.00 382338.39,5819508.85,0.00" speed="8.33" />
	<edge id="1168070110_3959807542_10121269309" from="3959807542" to="10121269309" numLanes="2" shape="381996.17,5819857.62,0.00 382052.86,5819801.35,0.00" speed="13.89" />
	<edge id="102945288_3816992320_26904555" from="3816992320" to="26904555" numLanes="2" shape="382005.68,5819039.53,0.00 382220.79,5819056.00,0.00 382276.22,5819060.25,0.00 382302.25,5819062.24,0.00 382322.80,5819063.82,0.00 382327.08,5819064.15,0.00 382383.70,5819068.49,0.00 382485.78,5819076.31,0.00 382493.02,5819076.87,0.00" speed="13.89" />
	<edge id="183614197_26785769_11131977713" from="26785769" to="11131977713" numLanes="1" shape="383397.16,5819262.44,0.00 383405.78,5819263.43,0.00 383408.91,5819263.79,0.00" speed="8.33" />
	<edge id="4604844_27587484_27587423" from="27587484" to="27587423" numLanes="1" shape="382079.71,5819539.84,0.00 382074.68,5819542.66,0.00 382047.81,5819557.74,0.00 382011.30,5819575.90,0.00 381982.38,5819587.79,0.00 381954.86,5819596.87,0.00 381951.27,5819597.86,0.00 381930.46,5819603.61,0.00 381912.71,5819606.72,0.00 381904.43,5819608.17,0.00" speed="8.33" />
	<edge id="1146962811_10672978474_10238299230" from="10672978474" to="10238299230" numLanes="1" shape="383369.89,5819014.71,0.00 383337.76,5819012.73,0.00" speed="8.33" />
	<edge id="971877832_28552457_11133489564" from="28552457" to="11133489564" numLanes="1" shape="382011.54,5820469.44,0.00 382012.60,5820472.79,0.00" speed="2.78" />
	<edge id="527596998_3816959407_26904542" from="3816959407" to="26904542" numLanes="4" shape="382831.15,5819037.56,0.00 382831.11,5819038.02,0.00 382830.75,5819041.87,0.00 382830.97,5819046.53,0.00 382831.86,5819053.07,0.00" speed="13.89" />
	<edge id="445492242_2608049635_26785810" from="2608049635" to="26785810" numLanes="1" shape="383519.70,5819883.97,0.00 383514.30,5819881.93,0.00 383509.56,5819880.68,0.00 383505.51,5819880.83,0.00 383494.58,5819882.84,0.00 383444.80,5819897.59,0.00 383439.44,5819899.19,0.00" speed="8.33" />
	<edge id="1365468394_10125344509_27559594" from="10125344509" to="27559594" numLanes="1" shape="382289.36,5819874.10,0.00 382295.02,5819872.31,0.00 382448.21,5819823.02,0.00 382454.06,5819821.16,0.00" speed="8.33" />
	<edge id="1092670183_27559376_27559365" from="27559376" to="27559365" numLanes="1" shape="383124.54,5819971.50,0.00 383121.15,5819960.93,0.00 383101.06,5819898.25,0.00 383095.22,5819880.04,0.00" speed="8.33" />
	<edge id="38763875_459663523_10006929801" from="459663523" to="10006929801" numLanes="1" shape="383110.27,5819623.70,0.00 383102.70,5819626.19,0.00 383078.06,5819633.77,0.00" speed="8.33" />
	<edge id="490373688_297319805_28552445" from="297319805" to="28552445" numLanes="4" shape="382161.95,5820422.40,0.00 382144.78,5820427.22,0.00" speed="13.89" />
	<edge id="183621694_4286694331_3388609532" from="4286694331" to="3388609532" numLanes="2" shape="381966.48,5819036.67,0.00 381924.55,5819033.67,0.00" speed="13.89" />
	<edge id="1161088901_6990334154_3977932025" from="6990334154" to="3977932025" numLanes="1" shape="383283.54,5820490.31,0.00 383288.16,5820436.89,0.00 383289.71,5820418.91,0.00" speed="13.89" />
	<edge id="181088810_256724098_3959807548" from="256724098" to="3959807548" numLanes="3" shape="381988.91,5819892.69,0.00 381970.13,5819913.89,0.00" speed="13.89" />
	<edge id="4604849_27587525_27587524" from="27587525" to="27587524" numLanes="1" shape="382449.05,5819173.44,0.00 382476.56,5819178.17,0.00" speed="8.33" />
	<edge id="1112707861_270020877_10180759096" from="270020877" to="10180759096" numLanes="2" shape="383351.08,5819709.81,0.00 383351.22,5819707.73,0.00 383351.70,5819700.78,0.00 383354.84,5819655.03,0.00 383358.75,5819592.59,0.00" speed="13.89" />
	<edge id="5820845_395272180_11132012897" from="395272180" to="11132012897" numLanes="1" shape="383113.06,5819563.21,0.00 383120.28,5819563.73,0.00 383348.30,5819580.17,0.00" speed="8.33" />
	<edge id="971877832_28552457_28552455" from="28552457" to="28552455" numLanes="1" shape="382011.54,5820469.44,0.00 382008.00,5820458.30,0.00" speed="2.78" />
	<edge id="94455741_1097227997_16541457" from="1097227997" to="16541457" numLanes="3" shape="381966.68,5819872.48,0.00 381968.32,5819873.27,0.00 381969.21,5819873.91,0.00 381974.42,5819877.85,0.00" speed="13.89" />
	<edge id="4515878_27559582_27559476" from="27559582" to="27559476" numLanes="1" shape="382794.86,5820204.76,0.00 382791.65,5820194.57,0.00 382787.11,5820180.39,0.00 382784.69,5820172.37,0.00 382780.89,5820159.75,0.00 382773.93,5820138.05,0.00 382772.32,5820133.05,0.00" speed="8.33" />
	<edge id="426917404_79808381_275727138" from="79808381" to="275727138" numLanes="2" shape="382696.57,5819135.50,0.00 382676.23,5819121.89,0.00" speed="13.89" />
	<edge id="4515876_27559590_27559595" from="27559590" to="27559595" numLanes="1" shape="382516.88,5820021.39,0.00 382515.22,5820016.18,0.00 382484.90,5819920.42,0.00 382483.47,5819915.89,0.00" speed="8.33" />
	<edge id="25935855_26904696_16541478" from="26904696" to="16541478" numLanes="3" shape="381990.99,5819025.86,0.00 381990.24,5819038.35,0.00" speed="13.89" />
	<edge id="1039425453_27559597_10125344509" from="27559597" to="10125344509" numLanes="1" shape="382259.01,5819777.52,0.00 382260.30,5819781.61,0.00 382267.56,5819804.73,0.00 382287.82,5819869.21,0.00 382289.36,5819874.10,0.00" speed="8.33" />
	<edge id="1111782353_4489578377_26904686" from="4489578377" to="26904686" numLanes="1" shape="382503.37,5819341.78,0.00 382506.18,5819338.94,0.00 382519.18,5819326.12,0.00" speed="13.89" />
	<edge id="1119424924_10238653343_10238684270" from="10238653343" to="10238684270" numLanes="1" shape="383180.45,5819001.34,0.00 383190.92,5819001.84,0.00" speed="8.33" />
	<edge id="333310715_26745966_26745969" from="26745966" to="26745969" numLanes="4" shape="383122.62,5819121.28,0.00 383131.07,5819122.06,0.00 383254.65,5819131.83,0.00" speed="13.89" />
	<edge id="4604854_27560039_6238304462" from="27560039" to="6238304462" numLanes="1" shape="382135.10,5819718.53,0.00 382124.83,5819714.80,0.00 382121.54,5819713.79,0.00" speed="8.33" />
	<edge id="985571369_29272968_2395462184" from="29272968" to="2395462184" numLanes="1" shape="382279.12,5819044.67,0.00 382284.15,5819040.40,0.00 382299.09,5819027.73,0.00" speed="13.89" />
	<edge id="706790674_3817030586_27559811" from="3817030586" to="27559811" numLanes="1" shape="382163.33,5819721.37,0.00 382154.80,5819722.48,0.00" speed="13.89" />
	<edge id="38763878_27559580_27559579" from="27559580" to="27559579" numLanes="1" shape="383164.05,5820101.34,0.00 383160.24,5820087.12,0.00" speed="8.33" />
	<edge id="1101003926_28997947_12227695189" from="28997947" to="12227695189" numLanes="2" shape="382129.59,5820338.55,0.00 382130.69,5820345.26,0.00 382143.19,5820378.84,0.00 382145.40,5820382.35,0.00" speed="13.89" />
	<edge id="1039425453_27559591_27559592" from="27559591" to="27559592" numLanes="1" shape="382351.72,5820074.77,0.00 382353.30,5820079.81,0.00 382378.57,5820160.47,0.00 382380.28,5820165.52,0.00" speed="8.33" />
	<edge id="4515876_27559590_27559589" from="27559590" to="27559589" numLanes="1" shape="382516.88,5820021.39,0.00 382518.48,5820026.58,0.00 382539.08,5820093.42,0.00 382543.31,5820107.33,0.00 382544.99,5820112.85,0.00" speed="8.33" />
	<edge id="24851986_270021964_26785807" from="270021964" to="26785807" numLanes="1" shape="383333.46,5819922.75,0.00 383349.70,5819923.12,0.00" speed="13.89" />
	<edge id="978609677_3817030586_6238304461" from="3817030586" to="6238304461" numLanes="1" shape="382163.33,5819721.37,0.00 382173.21,5819720.55,0.00 382176.41,5819720.05,0.00" speed="13.89" />
	<edge id="454114098_26904677_4489578379" from="26904677" to="4489578379" numLanes="4" shape="382916.08,5818964.85,0.00 382854.98,5819002.70,0.00 382848.25,5819007.68,0.00 382841.36,5819014.81,0.00 382836.70,5819021.11,0.00 382833.93,5819027.17,0.00 382832.83,5819029.93,0.00" speed="13.89" />
	<edge id="1116995921_26745968_10215722431" from="26745968" to="10215722431" numLanes="5" shape="383252.90,5819148.42,0.00 383144.57,5819139.74,0.00" speed="13.89" />
	<edge id="4604854_27559819_6238304462" from="27559819" to="6238304462" numLanes="1" shape="381922.33,5819723.59,0.00 381930.01,5819720.50,0.00 381932.56,5819719.47,0.00 381965.09,5819707.97,0.00 381976.23,5819705.31,0.00 381982.61,5819703.78,0.00 382000.27,5819700.77,0.00 382001.13,5819700.58,0.00 382016.46,5819699.42,0.00 382032.05,5819698.54,0.00 382064.39,5819699.86,0.00 382067.19,5819700.00,0.00 382102.15,5819707.00,0.00 382121.54,5819713.79,0.00" speed="8.33" />
	<edge id="1102176150_1113899869_27587499" from="1113899869" to="27587499" numLanes="1" shape="381949.75,5819485.00,0.00 381948.94,5819479.85,0.00 381945.98,5819460.91,0.00 381945.28,5819456.43,0.00" speed="8.33" />
	<edge id="1039425453_27559591_27559596" from="27559591" to="27559596" numLanes="1" shape="382351.72,5820074.77,0.00 382350.09,5820069.56,0.00 382320.08,5819973.44,0.00 382318.53,5819968.48,0.00" speed="8.33" />
	<edge id="1216817312_282763131_380351208" from="282763131" to="380351208" numLanes="2" shape="381979.68,5819037.61,0.00 381980.44,5819025.00,0.00 381980.66,5819020.14,0.00" speed="13.89" />
	<edge id="1200589600_11131977713_11131980630" from="11131977713" to="11131980630" numLanes="1" shape="383408.91,5819263.79,0.00 383428.90,5819265.80,0.00 383487.54,5819271.69,0.00 383496.24,5819272.45,0.00 383504.71,5819273.42,0.00 383598.44,5819282.84,0.00" speed="8.33" />
	<edge id="4446510_1092697792_270021964" from="1092697792" to="270021964" numLanes="2" shape="383307.10,5820015.06,0.00 383315.83,5819989.60,0.00 383326.65,5819960.36,0.00 383330.22,5819944.90,0.00 383332.40,5819930.01,0.00 383333.46,5819922.75,0.00" speed="13.89" />
	<edge id="1056642838_26904730_26904724" from="26904730" to="26904724" numLanes="1" shape="381868.62,5819375.42,0.00 381876.08,5819369.40,0.00 382036.24,5819240.11,0.00 382042.43,5819235.11,0.00" speed="8.33" />
	<edge id="4515873_27559471_459663518" from="27559471" to="459663518" numLanes="1" shape="382746.07,5820048.49,0.00 382751.25,5820046.83,0.00 382936.30,5819987.33,0.00 382941.13,5819985.77,0.00" speed="8.33" />
	<edge id="25204781_26904542_26904559" from="26904542" to="26904559" numLanes="5" shape="382831.86,5819053.07,0.00 382833.77,5819057.71,0.00 382835.43,5819061.56,0.00 382840.00,5819076.03,0.00 382843.05,5819085.13,0.00 382844.70,5819090.25,0.00" speed="13.89" />
	<edge id="37541417_527332352_11426881943" from="527332352" to="11426881943" numLanes="3" shape="382708.18,5819150.50,0.00 382702.35,5819144.18,0.00 382698.26,5819139.37,0.00" speed="13.89" />
	<edge id="1101003925_10076402622_459659150" from="10076402622" to="459659150" numLanes="2" shape="382137.76,5820402.18,0.00 382137.65,5820401.80,0.00 382118.86,5820349.64,0.00 382116.67,5820343.14,0.00" speed="13.89" />
	<edge id="4515872_27559629_27559628" from="27559629" to="27559628" numLanes="1" shape="381969.85,5820185.97,0.00 381988.58,5820185.83,0.00 381998.25,5820185.03,0.00 382009.84,5820183.28,0.00 382020.52,5820180.96,0.00 382030.67,5820178.00,0.00 382042.42,5820174.26,0.00 382049.67,5820171.96,0.00" speed="8.33" />
	<edge id="4515880_27559406_27559428" from="27559406" to="27559428" numLanes="2" shape="382699.63,5819904.53,0.00 382694.76,5819905.75,0.00 382686.38,5819906.82,0.00 382677.93,5819906.61,0.00 382669.60,5819905.15,0.00 382661.59,5819902.46,0.00 382654.07,5819898.59,0.00 382647.26,5819893.69,0.00 382641.25,5819887.81,0.00 382636.19,5819881.12,0.00 382632.11,5819873.51,0.00 382630.05,5819868.22,0.00" speed="8.33" />
	<edge id="1146962811_10238299230_10672978474" from="10238299230" to="10672978474" numLanes="1" shape="383337.76,5819012.73,0.00 383369.89,5819014.71,0.00" speed="8.33" />
	<edge id="4480548_26904742_26904741" from="26904742" to="26904741" numLanes="1" shape="382669.99,5819444.51,0.00 382665.00,5819446.18,0.00 382621.92,5819460.59,0.00 382572.93,5819476.99,0.00 382566.84,5819479.03,0.00" speed="8.33" />
	<edge id="1092670183_27559350_27559365" from="27559350" to="27559365" numLanes="1" shape="383082.60,5819838.98,0.00 383084.10,5819843.89,0.00 383095.22,5819880.04,0.00" speed="8.33" />
	<edge id="4515858_6157149084_26785775" from="6157149084" to="26785775" numLanes="1" shape="383072.74,5819449.49,0.00 383066.85,5819449.12,0.00 383054.11,5819448.43,0.00" speed="13.89" />
	<edge id="4604852_26904684_28552463" from="26904684" to="28552463" numLanes="1" shape="382443.69,5819431.07,0.00 382429.18,5819416.79,0.00" speed="13.89" />