<?xml version="1.0" encoding="UTF-8"?>
<additional xmlns:xsi="http://www.w3.org/2001/XMLSchema-instance" xsi:noNamespaceSchemaLocation="http://sumo.dlr.de/xsd/additional_file.xsd">
    <busStop id="bs1" name="Ulmenallee 42" lane="1092670150_27559591_28997950_0" startPos="20" endPos="30" personCapacity="10"/>
    <busStop id="bs2" name="Platanenallee" lane="4515866_27560039_27559811_0" startPos="2" endPos="7" personCapacity="2"/>
    <busStop id="bs3" name="Ahornallee 40" lane="4515882_27559323_27559334_0" startPos="15" endPos="20" personCapacity="6"/>
    <busStop id="bs4" name="Bolivarallee 13" lane="38763678_27559628_27559627_0" startPos="30" endPos="35" personCapacity="4"/>
    <busStop id="bs5" name="Bolivarallee 20" lane="1092670137_28997949_459659148_0" startPos="30" endPos="35" personCapacity="4"/>
    <busStop id="bs6" name="Ahornallee 6" lane="1092670183_27559365_27559350_0" startPos="15" endPos="20" personCapacity="4"/>
    <busStop id="bs7" name="Eberschenallee 7" lane="493264401_27559341_27559334_0" startPos="15" endPos="20" personCapacity="4"/>
</additional>
