<?xml version="1.0" encoding="UTF-8"?>

<!-- generated on 2025-04-15 23:58:21 by Eclipse SUMO netconvert Version 1.22.0
<netconvertConfiguration xmlns:xsi="http://www.w3.org/2001/XMLSchema-instance" xsi:noNamespaceSchemaLocation="http://sumo.dlr.de/xsd/netconvertConfiguration.xsd">

    <input>
        <node-files value="C:\Users\Kotse\IdeaProjects\scenario-convert-24.1\theodorHeuss\sumo\theodorHeuss.nod.xml"/>
        <edge-files value="C:\Users\Kotse\IdeaProjects\scenario-convert-24.1\theodorHeuss\sumo\theodorHeuss.edg.xml"/>
        <connection-files value="C:\Users\Kotse\IdeaProjects\scenario-convert-24.1\theodorHeuss\sumo\theodorHeuss.con.xml"/>
    </input>

    <output>
        <output-file value="C:\Users\Kotse\IdeaProjects\scenario-convert-24.1\theodorHeuss\sumo\theodorHeuss.net.xml"/>
    </output>

</netconvertConfiguration>
-->

<net version="1.20" junctionCornerDetail="5" limitTurnSpeed="5.50" xmlns:xsi="http://www.w3.org/2001/XMLSchema-instance" xsi:noNamespaceSchemaLocation="http://sumo.dlr.de/xsd/net_file.xsd">

    <location netOffset="-381868.62,-5818839.60" convBoundary="0.00,0.00,1729.82,1661.11" origBoundary="381868.62,5818839.60,383598.44,5820500.71" projParameter="+proj=utm +zone=33 +ellps=WGS84 +datum=WGS84 +units=m +no_defs"/>

    <edge id=":10006900412_0" function="internal">
        <lane id=":10006900412_0_0" index="0" speed="8.33" length="0.26" shape="1196.60,799.75 1196.35,799.83"/>
    </edge>
    <edge id=":10006900412_1" function="internal">
        <lane id=":10006900412_1_0" index="0" speed="3.65" length="2.34" shape="1196.60,799.75 1195.22,799.33 1194.61,798.68"/>
    </edge>
    <edge id=":10006900412_4" function="internal">
        <lane id=":10006900412_4_0" index="0" speed="3.65" length="2.34" shape="1194.61,798.68 1194.76,797.80 1195.67,796.69"/>
    </edge>
    <edge id=":10006900412_2" function="internal">
        <lane id=":10006900412_2_0" index="0" speed="8.33" length="0.31" shape="1195.37,796.78 1195.67,796.69"/>
    </edge>
    <edge id=":10006900412_3" function="internal">
        <lane id=":10006900412_3_0" index="0" speed="3.65" length="2.34" shape="1195.37,796.78 1196.76,797.18 1197.39,797.82"/>
    </edge>
    <edge id=":10006900412_5" function="internal">
        <lane id=":10006900412_5_0" index="0" speed="3.65" length="2.34" shape="1197.39,797.82 1197.25,798.70 1196.35,799.83"/>
    </edge>
    <edge id=":10006924782_0" function="internal">
        <lane id=":10006924782_0_0" index="0" speed="13.89" length="0.10" shape="1158.13,616.17 1158.14,616.17"/>
    </edge>
    <edge id=":10006924782_1" function="internal">
        <lane id=":10006924782_1_0" index="0" speed="3.65" length="2.34" shape="1158.13,616.17 1156.78,615.69 1156.20,615.00"/>
    </edge>
    <edge id=":10006924782_4" function="internal">
        <lane id=":10006924782_4_0" index="0" speed="3.65" length="2.34" shape="1156.20,615.00 1156.39,614.13 1157.37,613.07"/>
    </edge>
    <edge id=":10006924782_2" function="internal">
        <lane id=":10006924782_2_0" index="0" speed="13.89" length="0.10" shape="1157.36,613.07 1157.37,613.07"/>
    </edge>
    <edge id=":10006924782_3" function="internal">
        <lane id=":10006924782_3_0" index="0" speed="3.65" length="2.34" shape="1157.36,613.07 1158.72,613.55 1159.30,614.23"/>
    </edge>
    <edge id=":10006924782_5" function="internal">
        <lane id=":10006924782_5_0" index="0" speed="3.65" length="2.34" shape="1159.30,614.23 1159.11,615.11 1158.14,616.17"/>
    </edge>
    <edge id=":10006929801_0" function="internal">
        <lane id=":10006929801_0_0" index="0" speed="8.33" length="0.30" shape="1210.05,795.66 1209.76,795.74"/>
    </edge>
    <edge id=":10006929801_1" function="internal">
        <lane id=":10006929801_1_0" index="0" speed="3.65" length="2.34" shape="1210.05,795.66 1208.67,795.24 1208.05,794.60"/>
    </edge>
    <edge id=":10006929801_4" function="internal">
        <lane id=":10006929801_4_0" index="0" speed="3.65" length="2.34" shape="1208.05,794.60 1208.20,793.71 1209.11,792.60"/>
    </edge>
    <edge id=":10006929801_2" function="internal">
        <lane id=":10006929801_2_0" index="0" speed="8.33" length="0.29" shape="1208.83,792.68 1209.11,792.60"/>
    </edge>
    <edge id=":10006929801_3" function="internal">
        <lane id=":10006929801_3_0" index="0" speed="3.65" length="2.34" shape="1208.83,792.68 1210.21,793.10 1210.83,793.75"/>
    </edge>
    <edge id=":10006929801_5" function="internal">
        <lane id=":10006929801_5_0" index="0" speed="3.65" length="2.34" shape="1210.83,793.75 1210.68,794.63 1209.76,795.74"/>
    </edge>
    <edge id=":10006939457_0" function="internal">
        <lane id=":10006939457_0_0" index="0" speed="8.33" length="0.28" shape="1279.26,1212.00 1279.18,1211.74"/>
    </edge>
    <edge id=":10006939457_1" function="internal">
        <lane id=":10006939457_1_0" index="0" speed="3.65" length="2.34" shape="1279.26,1212.00 1279.68,1210.62 1280.33,1210.01"/>
    </edge>
    <edge id=":10006939457_4" function="internal">
        <lane id=":10006939457_4_0" index="0" speed="3.65" length="2.34" shape="1280.33,1210.01 1281.21,1210.16 1282.32,1211.08"/>
    </edge>
    <edge id=":10006939457_2" function="internal">
        <lane id=":10006939457_2_0" index="0" speed="8.33" length="0.31" shape="1282.23,1210.78 1282.32,1211.08"/>
    </edge>
    <edge id=":10006939457_3" function="internal">
        <lane id=":10006939457_3_0" index="0" speed="3.65" length="2.34" shape="1282.23,1210.78 1281.83,1212.17 1281.18,1212.79"/>
    </edge>
    <edge id=":10006939457_5" function="internal">
        <lane id=":10006939457_5_0" index="0" speed="3.65" length="2.34" shape="1281.18,1212.79 1280.30,1212.64 1279.18,1211.74"/>
    </edge>
    <edge id=":10076399002_0" function="internal">
        <lane id=":10076399002_0_0" index="0" speed="13.89" length="1.43" shape="1537.04,340.37 1537.11,338.94"/>
        <lane id=":10076399002_0_1" index="1" speed="13.89" length="1.43" shape="1533.84,340.22 1533.91,338.79"/>
    </edge>
    <edge id=":10076402622_0" function="internal">
        <lane id=":10076402622_0_0" index="0" speed="13.89" length="0.28" shape="264.55,1563.98 264.48,1563.75"/>
        <lane id=":10076402622_0_1" index="1" speed="13.89" length="0.28" shape="267.64,1563.16 267.55,1562.86"/>
    </edge>
    <edge id=":10076403251_0" function="internal">
        <lane id=":10076403251_0_0" index="0" speed="13.89" length="0.28" shape="287.49,1555.61 287.62,1555.89"/>
        <lane id=":10076403251_0_1" index="1" speed="13.89" length="0.28" shape="284.61,1557.01 284.72,1557.23"/>
    </edge>
    <edge id=":10076418552_0" function="internal">
        <lane id=":10076418552_0_0" index="0" speed="13.89" length="2.62" shape="1507.72,290.86 1505.11,290.60"/>
        <lane id=":10076418552_0_1" index="1" speed="13.89" length="2.62" shape="1507.41,294.04 1504.80,293.78"/>
        <lane id=":10076418552_0_2" index="2" speed="13.89" length="2.62" shape="1507.10,297.23 1504.50,296.97"/>
        <lane id=":10076418552_0_3" index="3" speed="13.89" length="2.62" shape="1506.79,300.41 1504.20,300.16"/>
    </edge>
    <edge id=":10076419172_0" function="internal">
        <lane id=":10076419172_0_0" index="0" speed="13.89" length="0.65" shape="1487.26,627.70 1487.90,627.74"/>
    </edge>
    <edge id=":10076419172_1" function="internal">
        <lane id=":10076419172_1_0" index="0" speed="3.65" length="2.34" shape="1487.26,627.70 1486.11,626.82 1485.76,626.00"/>
    </edge>
    <edge id=":10076419172_4" function="internal">
        <lane id=":10076419172_4_0" index="0" speed="3.65" length="2.34" shape="1485.76,626.00 1486.21,625.23 1487.46,624.50"/>
    </edge>
    <edge id=":10076419172_2" function="internal">
        <lane id=":10076419172_2_0" index="0" speed="13.89" length="0.66" shape="1488.12,624.54 1487.46,624.50"/>
    </edge>
    <edge id=":10076419172_3" function="internal">
        <lane id=":10076419172_3_0" index="0" speed="3.65" length="2.34" shape="1488.12,624.54 1489.26,625.42 1489.61,626.25"/>
    </edge>
    <edge id=":10076419172_5" function="internal">
        <lane id=":10076419172_5_0" index="0" speed="3.65" length="2.34" shape="1489.61,626.25 1489.16,627.02 1487.90,627.74"/>
    </edge>
    <edge id=":10076421651_0" function="internal">
        <lane id=":10076421651_0_0" index="0" speed="13.89" length="3.48" shape="1548.98,288.28 1548.98,288.43"/>
        <lane id=":10076421651_0_1" index="1" speed="13.89" length="3.48" shape="1545.79,288.13 1545.78,288.32"/>
        <lane id=":10076421651_0_2" index="2" speed="13.89" length="3.48" shape="1542.59,287.99 1542.22,296.35"/>
        <lane id=":10076421651_0_3" index="3" speed="13.89" length="3.48" shape="1539.39,287.84 1539.02,296.23"/>
        <lane id=":10076421651_0_4" index="4" speed="13.89" length="3.48" shape="1536.20,287.70 1536.18,288.00"/>
    </edge>
    <edge id=":10076434581_0" function="internal">
        <lane id=":10076434581_0_0" index="0" speed="13.89" length="3.27" shape="1500.76,332.93 1504.18,333.33"/>
        <lane id=":10076434581_0_1" index="1" speed="13.89" length="3.27" shape="1501.10,329.75 1504.44,330.14"/>
        <lane id=":10076434581_0_2" index="2" speed="13.89" length="3.27" shape="1501.45,326.57 1504.70,326.95"/>
        <lane id=":10076434581_0_3" index="3" speed="13.89" length="3.27" shape="1501.80,323.39 1504.96,323.76"/>
        <lane id=":10076434581_0_4" index="4" speed="13.89" length="3.27" shape="1502.14,320.20 1505.22,320.57"/>
    </edge>
    <edge id=":10076434582_0" function="internal">
        <lane id=":10076434582_0_0" index="0" speed="13.89" length="0.94" shape="1510.77,286.23 1510.75,287.19"/>
        <lane id=":10076434582_0_1" index="1" speed="13.89" length="0.94" shape="1513.97,286.34 1513.95,287.28"/>
        <lane id=":10076434582_0_2" index="2" speed="13.89" length="0.94" shape="1517.17,286.46 1517.15,287.37"/>
    </edge>
    <edge id=":10076439469_0" function="internal">
        <lane id=":10076439469_0_0" index="0" speed="13.89" length="0.30" shape="1496.08,614.13 1496.09,613.83"/>
        <lane id=":10076439469_0_1" index="1" speed="13.89" length="0.30" shape="1499.27,614.29 1499.29,613.99"/>
    </edge>
    <edge id=":10076448388_0" function="internal">
        <lane id=":10076448388_0_0" index="0" speed="13.89" length="0.30" shape="1520.97,615.32 1520.95,615.61"/>
        <lane id=":10076448388_0_1" index="1" speed="13.89" length="0.30" shape="1517.78,615.08 1517.75,615.38"/>
    </edge>
    <edge id=":10076448722_0" function="internal">
        <lane id=":10076448722_0_0" index="0" speed="13.89" length="0.30" shape="1519.11,642.11 1519.09,642.41"/>
        <lane id=":10076448722_0_1" index="1" speed="13.89" length="0.30" shape="1515.92,641.90 1515.90,642.20"/>
    </edge>
    <edge id=":10076905921_0" function="internal">
        <lane id=":10076905921_0_0" index="0" speed="13.89" length="0.29" shape="1449.86,1274.29 1449.84,1274.57"/>
        <lane id=":10076905921_0_1" index="1" speed="13.89" length="0.29" shape="1446.67,1274.03 1446.64,1274.34"/>
    </edge>
    <edge id=":10076915437_0" function="internal">
        <lane id=":10076915437_0_0" index="0" speed="13.89" length="0.21" shape="1413.90,1258.39 1414.11,1258.41"/>
        <lane id=":10076915437_0_1" index="1" speed="13.89" length="0.21" shape="1414.18,1255.20 1414.39,1255.22"/>
    </edge>
    <edge id=":10076919019_0" function="internal">
        <lane id=":10076919019_0_0" index="0" speed="8.33" length="0.30" shape="1463.88,1238.90 1464.18,1238.93"/>
        <lane id=":10076919019_0_1" index="1" speed="8.33" length="0.30" shape="1463.57,1242.08 1463.87,1242.11"/>
    </edge>
    <edge id=":10111842909_0" function="internal">
        <lane id=":10111842909_0_0" index="0" speed="13.89" length="4.20" shape="156.48,1108.81 157.20,1104.68"/>
        <lane id=":10111842909_0_1" index="1" speed="13.89" length="4.20" shape="153.32,1108.27 154.05,1104.13"/>
    </edge>
    <edge id=":10121269309_0" function="internal">
        <lane id=":10121269309_0_0" index="0" speed="13.89" length="0.29" shape="180.74,958.46 180.93,958.27"/>
        <lane id=":10121269309_0_1" index="1" speed="13.89" length="0.29" shape="182.99,960.73 183.21,960.51"/>
    </edge>
    <edge id=":10121283137_0" function="internal">
        <lane id=":10121283137_0_0" index="0" speed="13.89" length="0.30" shape="122.55,1132.91 122.53,1132.61"/>
        <lane id=":10121283137_0_1" index="1" speed="13.89" length="0.30" shape="125.74,1132.70 125.72,1132.41"/>
    </edge>
    <edge id=":10121291553_0" function="internal">
        <lane id=":10121291553_0_0" index="0" speed="3.65" length="4.67" shape="22.13,1042.33 20.82,1041.73 20.30,1041.00 20.57,1040.15 21.63,1039.17"/>
    </edge>
    <edge id=":10125344509_0" function="internal">
        <lane id=":10125344509_0_0" index="0" speed="6.48" length="9.03" shape="421.34,1041.90 420.28,1039.66 418.76,1038.30 416.78,1037.84 414.34,1038.26"/>
    </edge>
    <edge id=":10125344509_1" function="internal">
        <lane id=":10125344509_1_0" index="0" speed="8.33" length="14.44" shape="421.34,1041.90 417.05,1028.11"/>
    </edge>
    <edge id=":10125344509_2" function="internal">
        <lane id=":10125344509_2_0" index="0" speed="8.05" length="4.06" shape="421.34,1041.90 420.73,1038.05 420.77,1037.89"/>
    </edge>
    <edge id=":10125344509_3" function="internal">
        <lane id=":10125344509_3_0" index="0" speed="3.65" length="1.44" shape="421.34,1041.90 421.76,1040.52"/>
    </edge>
    <edge id=":10125344509_16" function="internal">
        <lane id=":10125344509_16_0" index="0" speed="8.05" length="10.18" shape="420.77,1037.89 421.49,1034.92 423.62,1032.50 427.12,1030.80"/>
    </edge>
    <edge id=":10125344509_17" function="internal">
        <lane id=":10125344509_17_0" index="0" speed="3.65" length="3.23" shape="421.76,1040.52 422.40,1039.90 423.29,1040.05 424.40,1040.96"/>
    </edge>
    <edge id=":10125344509_4" function="internal">
        <lane id=":10125344509_4_0" index="0" speed="6.56" length="9.11" shape="428.09,1033.85 425.85,1034.94 424.49,1036.49 424.01,1038.49 424.40,1040.96"/>
    </edge>
    <edge id=":10125344509_5" function="internal">
        <lane id=":10125344509_5_0" index="0" speed="8.33" length="14.44" shape="428.09,1033.85 414.34,1038.26"/>
    </edge>
    <edge id=":10125344509_6" function="internal">
        <lane id=":10125344509_6_0" index="0" speed="7.99" length="14.21" shape="428.09,1033.85 424.25,1034.50 421.14,1033.76 418.74,1031.63 417.05,1028.11"/>
    </edge>
    <edge id=":10125344509_7" function="internal">
        <lane id=":10125344509_7_0" index="0" speed="3.65" length="4.67" shape="428.09,1033.85 426.70,1033.45 426.08,1032.80 426.22,1031.92 427.12,1030.80"/>
    </edge>
    <edge id=":10125344509_8" function="internal">
        <lane id=":10125344509_8_0" index="0" speed="6.49" length="9.04" shape="420.10,1027.15 421.17,1029.39 422.70,1030.74 424.68,1031.21 427.12,1030.80"/>
    </edge>
    <edge id=":10125344509_9" function="internal">
        <lane id=":10125344509_9_0" index="0" speed="8.33" length="14.46" shape="420.10,1027.15 424.40,1040.96"/>
    </edge>
    <edge id=":10125344509_10" function="internal">
        <lane id=":10125344509_10_0" index="0" speed="8.04" length="4.09" shape="420.10,1027.15 420.73,1030.99 420.69,1031.18"/>
    </edge>
    <edge id=":10125344509_11" function="internal">
        <lane id=":10125344509_11_0" index="0" speed="3.65" length="1.44" shape="420.10,1027.15 419.70,1028.53"/>
    </edge>
    <edge id=":10125344509_18" function="internal">
        <lane id=":10125344509_18_0" index="0" speed="8.04" length="10.16" shape="420.69,1031.18 419.98,1034.12 417.85,1036.55 414.34,1038.26"/>
    </edge>
    <edge id=":10125344509_19" function="internal">
        <lane id=":10125344509_19_0" index="0" speed="3.65" length="3.23" shape="419.70,1028.53 419.06,1029.15 418.17,1029.01 417.05,1028.11"/>
    </edge>
    <edge id=":10125344509_12" function="internal">
        <lane id=":10125344509_12_0" index="0" speed="6.55" length="9.12" shape="413.35,1035.21 415.60,1034.12 416.97,1032.57 417.45,1030.57 417.05,1028.11"/>
    </edge>
    <edge id=":10125344509_13" function="internal">
        <lane id=":10125344509_13_0" index="0" speed="8.33" length="14.47" shape="413.35,1035.21 427.12,1030.80"/>
    </edge>
    <edge id=":10125344509_14" function="internal">
        <lane id=":10125344509_14_0" index="0" speed="7.98" length="14.25" shape="413.35,1035.21 417.20,1034.55 420.33,1035.29 422.73,1037.42 424.40,1040.96"/>
    </edge>
    <edge id=":10125344509_15" function="internal">
        <lane id=":10125344509_15_0" index="0" speed="3.65" length="4.67" shape="413.35,1035.21 414.74,1035.60 415.36,1036.24 415.23,1037.12 414.34,1038.26"/>
    </edge>
    <edge id=":10169729714_0" function="internal">
        <lane id=":10169729714_0_0" index="0" speed="8.33" length="0.30" shape="579.82,877.61 579.53,877.71"/>
    </edge>
    <edge id=":10169729714_1" function="internal">
        <lane id=":10169729714_1_0" index="0" speed="3.65" length="2.34" shape="579.82,877.61 578.43,877.23 577.80,876.59"/>
    </edge>
    <edge id=":10169729714_4" function="internal">
        <lane id=":10169729714_4_0" index="0" speed="3.65" length="2.34" shape="577.80,876.59 577.93,875.70 578.83,874.57"/>
    </edge>
    <edge id=":10169729714_2" function="internal">
        <lane id=":10169729714_2_0" index="0" speed="8.33" length="0.30" shape="578.54,874.66 578.83,874.57"/>
    </edge>
    <edge id=":10169729714_3" function="internal">
        <lane id=":10169729714_3_0" index="0" speed="3.65" length="2.34" shape="578.54,874.66 579.93,875.06 580.56,875.69"/>
    </edge>
    <edge id=":10169729714_5" function="internal">
        <lane id=":10169729714_5_0" index="0" speed="3.65" length="2.34" shape="580.56,875.69 580.43,876.58 579.53,877.71"/>
    </edge>
    <edge id=":10169831366_0" function="internal">
        <lane id=":10169831366_0_0" index="0" speed="8.33" length="0.80" shape="1004.70,320.42 1004.71,320.54 1004.72,320.62 1004.74,320.70 1004.78,320.82"/>
        <lane id=":10169831366_0_1" index="1" speed="8.33" length="0.80" shape="1001.51,320.62 1001.53,320.98 1001.56,321.22 1001.62,321.46 1001.73,321.80"/>
    </edge>
    <edge id=":10169889914_0" function="internal">
        <lane id=":10169889914_0_0" index="0" speed="8.33" length="0.30" shape="607.61,868.57 607.32,868.67"/>
    </edge>
    <edge id=":10169889914_1" function="internal">
        <lane id=":10169889914_1_0" index="0" speed="3.65" length="2.34" shape="607.61,868.57 606.22,868.19 605.59,867.55"/>
    </edge>
    <edge id=":10169889914_4" function="internal">
        <lane id=":10169889914_4_0" index="0" speed="3.65" length="2.34" shape="605.59,867.55 605.72,866.66 606.62,865.53"/>
    </edge>
    <edge id=":10169889914_2" function="internal">
        <lane id=":10169889914_2_0" index="0" speed="8.33" length="0.30" shape="606.33,865.62 606.62,865.53"/>
    </edge>
    <edge id=":10169889914_3" function="internal">
        <lane id=":10169889914_3_0" index="0" speed="3.65" length="2.34" shape="606.33,865.62 607.72,866.01 608.35,866.65"/>
    </edge>
    <edge id=":10169889914_5" function="internal">
        <lane id=":10169889914_5_0" index="0" speed="3.65" length="2.34" shape="608.35,866.65 608.22,867.54 607.32,868.67"/>
    </edge>
    <edge id=":10169895376_0" function="internal">
        <lane id=":10169895376_0_0" index="0" speed="8.33" length="0.30" shape="590.53,874.13 590.24,874.22"/>
    </edge>
    <edge id=":10169895376_1" function="internal">
        <lane id=":10169895376_1_0" index="0" speed="3.65" length="2.34" shape="590.53,874.13 589.14,873.74 588.51,873.10"/>
    </edge>
    <edge id=":10169895376_4" function="internal">
        <lane id=":10169895376_4_0" index="0" speed="3.65" length="2.34" shape="588.51,873.10 588.64,872.21 589.54,871.08"/>
    </edge>
    <edge id=":10169895376_2" function="internal">
        <lane id=":10169895376_2_0" index="0" speed="8.33" length="0.30" shape="589.25,871.18 589.54,871.08"/>
    </edge>
    <edge id=":10169895376_3" function="internal">
        <lane id=":10169895376_3_0" index="0" speed="3.65" length="2.34" shape="589.25,871.18 590.64,871.56 591.27,872.20"/>
    </edge>
    <edge id=":10169895376_5" function="internal">
        <lane id=":10169895376_5_0" index="0" speed="3.65" length="2.34" shape="591.27,872.20 591.14,873.09 590.24,874.22"/>
    </edge>
    <edge id=":10169896970_0" function="internal">
        <lane id=":10169896970_0_0" index="0" speed="8.33" length="0.10" shape="778.38,813.16 778.38,813.16"/>
    </edge>
    <edge id=":10169896970_1" function="internal">
        <lane id=":10169896970_1_0" index="0" speed="3.65" length="2.34" shape="778.38,813.16 776.99,812.77 776.37,812.13"/>
    </edge>
    <edge id=":10169896970_4" function="internal">
        <lane id=":10169896970_4_0" index="0" speed="3.65" length="2.34" shape="776.37,812.13 776.50,811.24 777.40,810.12"/>
    </edge>
    <edge id=":10169896970_2" function="internal">
        <lane id=":10169896970_2_0" index="0" speed="8.33" length="0.10" shape="777.40,810.12 777.40,810.12"/>
    </edge>
    <edge id=":10169896970_3" function="internal">
        <lane id=":10169896970_3_0" index="0" speed="3.65" length="2.34" shape="777.40,810.12 778.79,810.51 779.41,811.15"/>
    </edge>
    <edge id=":10169896970_5" function="internal">
        <lane id=":10169896970_5_0" index="0" speed="3.65" length="2.34" shape="779.41,811.15 779.28,812.04 778.38,813.16"/>
    </edge>
    <edge id=":10169896971_0" function="internal">
        <lane id=":10169896971_0_0" index="0" speed="8.33" length="0.30" shape="800.97,805.96 800.68,806.05"/>
    </edge>
    <edge id=":10169896971_1" function="internal">
        <lane id=":10169896971_1_0" index="0" speed="3.65" length="2.34" shape="800.97,805.96 799.58,805.56 798.96,804.92"/>
    </edge>
    <edge id=":10169896971_4" function="internal">
        <lane id=":10169896971_4_0" index="0" speed="3.65" length="2.34" shape="798.96,804.92 799.10,804.04 800.00,802.91"/>
    </edge>
    <edge id=":10169896971_2" function="internal">
        <lane id=":10169896971_2_0" index="0" speed="8.33" length="0.30" shape="799.71,803.00 800.00,802.91"/>
    </edge>
    <edge id=":10169896971_3" function="internal">
        <lane id=":10169896971_3_0" index="0" speed="3.65" length="2.34" shape="799.71,803.00 801.10,803.40 801.72,804.04"/>
    </edge>
    <edge id=":10169896971_5" function="internal">
        <lane id=":10169896971_5_0" index="0" speed="3.65" length="2.34" shape="801.72,804.04 801.58,804.92 800.68,806.05"/>
    </edge>
    <edge id=":10170009835_0" function="internal">
        <lane id=":10170009835_0_0" index="0" speed="8.33" length="0.10" shape="703.88,663.36 703.88,663.36"/>
    </edge>
    <edge id=":10170009835_1" function="internal">
        <lane id=":10170009835_1_0" index="0" speed="3.65" length="2.34" shape="703.88,663.36 704.29,661.98 704.94,661.36"/>
    </edge>
    <edge id=":10170009835_4" function="internal">
        <lane id=":10170009835_4_0" index="0" speed="3.65" length="2.34" shape="704.94,661.36 705.82,661.51 706.94,662.42"/>
    </edge>
    <edge id=":10170009835_2" function="internal">
        <lane id=":10170009835_2_0" index="0" speed="8.33" length="0.10" shape="706.94,662.42 706.94,662.42"/>
    </edge>
    <edge id=":10170009835_3" function="internal">
        <lane id=":10170009835_3_0" index="0" speed="3.65" length="2.34" shape="706.94,662.42 706.53,663.80 705.88,664.42"/>
    </edge>
    <edge id=":10170009835_5" function="internal">
        <lane id=":10170009835_5_0" index="0" speed="3.65" length="2.34" shape="705.88,664.42 705.00,664.27 703.88,663.36"/>
    </edge>
    <edge id=":10170009926_0" function="internal">
        <lane id=":10170009926_0_0" index="0" speed="8.33" length="0.29" shape="692.71,627.10 692.63,626.82"/>
    </edge>
    <edge id=":10170009926_1" function="internal">
        <lane id=":10170009926_1_0" index="0" speed="3.65" length="2.34" shape="692.71,627.10 693.13,625.72 693.77,625.10"/>
    </edge>
    <edge id=":10170009926_4" function="internal">
        <lane id=":10170009926_4_0" index="0" speed="3.65" length="2.34" shape="693.77,625.10 694.66,625.25 695.77,626.16"/>
    </edge>
    <edge id=":10170009926_2" function="internal">
        <lane id=":10170009926_2_0" index="0" speed="8.33" length="0.30" shape="695.68,625.87 695.77,626.16"/>
    </edge>
    <edge id=":10170009926_3" function="internal">
        <lane id=":10170009926_3_0" index="0" speed="3.65" length="2.34" shape="695.68,625.87 695.28,627.26 694.63,627.87"/>
    </edge>
    <edge id=":10170009926_5" function="internal">
        <lane id=":10170009926_5_0" index="0" speed="3.65" length="2.34" shape="694.63,627.87 693.75,627.73 692.63,626.82"/>
    </edge>
    <edge id=":10171430009_0" function="internal">
        <lane id=":10171430009_0_0" index="0" speed="13.89" length="0.10" shape="705.62,461.76 705.62,461.76"/>
    </edge>
    <edge id=":10171462644_0" function="internal">
        <lane id=":10171462644_0_0" index="0" speed="13.89" length="0.10" shape="594.72,540.37 594.72,540.37"/>
    </edge>
    <edge id=":10171468847_0" function="internal">
        <lane id=":10171468847_0_0" index="0" speed="13.89" length="0.10" shape="768.06,402.14 768.06,402.14"/>
        <lane id=":10171468847_0_1" index="1" speed="13.89" length="0.10" shape="765.77,399.91 765.77,399.91"/>
    </edge>
    <edge id=":10178932892_0" function="internal">
        <lane id=":10178932892_0_0" index="0" speed="3.65" length="4.67" shape="446.16,173.79 447.60,173.68 448.41,174.06 448.59,174.94 448.14,176.31"/>
    </edge>
    <edge id=":10179017937_0" function="internal">
        <lane id=":10179017937_0_0" index="0" speed="13.89" length="0.30" shape="862.22,338.86 861.93,338.94"/>
        <lane id=":10179017937_0_1" index="1" speed="13.89" length="0.30" shape="861.38,335.77 861.09,335.85"/>
        <lane id=":10179017937_0_2" index="2" speed="13.89" length="0.30" shape="860.54,332.68 860.25,332.76"/>
    </edge>
    <edge id=":10179023270_0" function="internal">
        <lane id=":10179023270_0_0" index="0" speed="13.89" length="0.30" shape="874.47,335.51 874.19,335.59"/>
        <lane id=":10179023270_0_1" index="1" speed="13.89" length="0.30" shape="873.63,332.42 873.34,332.50"/>
        <lane id=":10179023270_0_2" index="2" speed="13.89" length="0.30" shape="872.79,329.33 872.50,329.41"/>
    </edge>
    <edge id=":10180658876_0" function="internal">
        <lane id=":10180658876_0_0" index="0" speed="13.89" length="0.29" shape="978.58,1371.81 978.28,1371.90"/>
        <lane id=":10180658876_0_1" index="1" speed="13.89" length="0.29" shape="977.55,1368.78 977.30,1368.86"/>
    </edge>
    <edge id=":10180666011_0" function="internal">
        <lane id=":10180666011_0_0" index="0" speed="13.89" length="0.30" shape="1112.52,1300.20 1112.80,1300.11"/>
        <lane id=":10180666011_0_1" index="1" speed="13.89" length="0.30" shape="1113.50,1303.24 1113.79,1303.15"/>
    </edge>
    <edge id=":10180683867_0" function="internal">
        <lane id=":10180683867_0_0" index="0" speed="13.89" length="0.30" shape="518.39,1491.36 518.68,1491.27"/>
        <lane id=":10180683867_0_1" index="1" speed="13.89" length="0.30" shape="519.38,1494.40 519.66,1494.31"/>
    </edge>
    <edge id=":10180691524_0" function="internal">
        <lane id=":10180691524_0_0" index="0" speed="13.89" length="0.30" shape="1075.07,1339.04 1074.79,1339.14"/>
        <lane id=":10180691524_0_1" index="1" speed="13.89" length="0.30" shape="1074.05,1336.01 1073.77,1336.11"/>
    </edge>
    <edge id=":10180691525_0" function="internal">
        <lane id=":10180691525_0_0" index="0" speed="13.89" length="0.10" shape="1212.98,1293.46 1212.98,1293.46"/>
        <lane id=":10180691525_0_1" index="1" speed="13.89" length="0.10" shape="1211.99,1290.41 1211.99,1290.41"/>
    </edge>
    <edge id=":10180727991_0" function="internal">
        <lane id=":10180727991_0_0" index="0" speed="13.89" length="0.30" shape="1535.44,375.96 1535.43,376.26"/>
        <lane id=":10180727991_0_1" index="1" speed="13.89" length="0.30" shape="1532.25,375.81 1532.23,376.11"/>
    </edge>
    <edge id=":10180744465_0" function="internal">
        <lane id=":10180744465_0_0" index="0" speed="13.89" length="0.30" shape="1498.77,566.82 1498.78,566.53"/>
        <lane id=":10180744465_0_1" index="1" speed="13.89" length="0.30" shape="1501.96,566.99 1501.98,566.69"/>
    </edge>
    <edge id=":10180758429_0" function="internal">
        <lane id=":10180758429_0_0" index="0" speed="13.89" length="0.10" shape="1523.99,571.91 1523.99,571.90"/>
        <lane id=":10180758429_0_1" index="1" speed="13.89" length="0.10" shape="1520.80,571.69 1520.80,571.69"/>
    </edge>
    <edge id=":10180759096_0" function="internal">
        <lane id=":10180759096_0_0" index="0" speed="13.89" length="0.30" shape="1485.33,752.84 1485.35,752.54"/>
        <lane id=":10180759096_0_1" index="1" speed="13.89" length="0.30" shape="1488.52,753.04 1488.54,752.74"/>
    </edge>
    <edge id=":10180759097_0" function="internal">
        <lane id=":10180759097_0_0" index="0" speed="13.89" length="0.30" shape="1516.68,679.27 1516.66,679.57"/>
        <lane id=":10180759097_0_1" index="1" speed="13.89" length="0.30" shape="1513.49,679.06 1513.47,679.36"/>
    </edge>
    <edge id=":10180760275_0" function="internal">
        <lane id=":10180760275_0_0" index="0" speed="13.89" length="0.30" shape="1491.57,675.76 1491.60,675.46"/>
        <lane id=":10180760275_0_1" index="1" speed="13.89" length="0.30" shape="1494.76,676.01 1494.79,675.72"/>
    </edge>
    <edge id=":10204483042_0" function="internal">
        <lane id=":10204483042_0_0" index="0" speed="13.89" length="0.30" shape="1005.37,253.10 1005.67,253.12"/>