<nodes>
	<node id="10093521476" x="332749.26" y="5684610.38" z="0.00" type="priority" />
	<node id="10093521484" x="332813.48" y="5684553.81" z="0.00" type="priority" />
	<node id="10093521485" x="332897.69" y="5684479.02" z="0.00" type="priority" />
	<node id="10093521487" x="332809.81" y="5684550.38" z="0.00" type="priority" />
	<node id="10093521488" x="332861.32" y="5684443.39" z="0.00" type="priority" />
	<node id="10093521497" x="332488.59" y="5684830.88" z="0.00" type="priority" />
	<node id="10093521503" x="332406.10" y="5684658.22" z="0.00" type="priority" />
	<node id="10093522021" x="332536.60" y="5684395.50" z="0.00" type="priority" />
	<node id="10093522036" x="332317.66" y="5684948.05" z="0.00" type="priority" />
	<node id="10093522044" x="332463.68" y="5684801.06" z="0.00" type="priority" />
	<node id="10093522045" x="332664.13" y="5685508.54" z="0.00" type="priority" />
	<node id="10093522057" x="332441.73" y="5685627.04" z="0.00" type="priority" />
	<node id="10127564034" x="332345.09" y="5684345.89" z="0.00" type="priority" />
	<node id="10127564043" x="332406.02" y="5684449.51" z="0.00" type="priority" />
	<node id="10127564045" x="332383.00" y="5684476.91" z="0.00" type="priority" />
	<node id="10127564046" x="332336.76" y="5684497.31" z="0.00" type="priority" />
	<node id="10127564078" x="332409.51" y="5684382.04" z="0.00" type="priority" />
	<node id="1015048754" x="332016.25" y="5681553.97" z="0.00" type="priority" />
	<node id="1015048944" x="331876.72" y="5681365.21" z="0.00" type="priority" />
	<node id="1015048949" x="332372.16" y="5680989.52" z="0.00" type="priority" />
	<node id="1015049046" x="333138.90" y="5681338.95" z="0.00" type="priority" />
	<node id="1015049221" x="332632.73" y="5680792.55" z="0.00" type="priority" />
	<node id="1024750788" x="332818.01" y="5684134.85" z="0.00" type="priority" />
	<node id="10302312449" x="332703.15" y="5686662.19" z="0.00" type="priority" />
	<node id="10302667327" x="333446.92" y="5686697.19" z="0.00" type="priority" />
	<node id="10649426585" x="331753.34" y="5682761.21" z="0.00" type="priority" />
	<node id="10649426599" x="331746.53" y="5682765.51" z="0.00" type="priority" />
	<node id="10669782462" x="332676.62" y="5683714.13" z="0.00" type="priority" />
	<node id="10669782554" x="331940.50" y="5683895.68" z="0.00" type="priority" />
	<node id="10669782556" x="331915.31" y="5683931.09" z="0.00" type="priority" />
	<node id="10705278411" x="332263.05" y="5683601.07" z="0.00" type="priority" />
	<node id="10929977" x="332216.48" y="5686640.95" z="0.00" type="priority" />
	<node id="10929987" x="332633.43" y="5686466.64" z="0.00" type="priority" />
	<node id="10930626" x="335140.49" y="5684469.41" z="0.00" type="priority" />
	<node id="10949374723" x="331733.58" y="5683871.16" z="0.00" type="priority" />
	<node id="10957038378" x="332298.79" y="5684638.61" z="0.00" type="priority" />
	<node id="10957038380" x="332244.62" y="5684609.56" z="0.00" type="priority" />
	<node id="10957038382" x="332167.91" y="5684575.73" z="0.00" type="priority" />
	<node id="10957038384" x="332108.41" y="5684546.87" z="0.00" type="priority" />
	<node id="10957038386" x="332053.28" y="5684504.39" z="0.00" type="priority" />
	<node id="10957038391" x="332000.85" y="5684378.79" z="0.00" type="priority" />
	<node id="10957038393" x="332007.17" y="5684304.63" z="0.00" type="priority" />
	<node id="10967319619" x="332028.20" y="5684238.08" z="0.00" type="priority" />
	<node id="10967319636" x="332080.84" y="5684287.58" z="0.00" type="priority" />
	<node id="11043878387" x="331777.83" y="5683561.32" z="0.00" type="priority" />
	<node id="11043878388" x="331802.92" y="5683562.00" z="0.00" type="priority" />
	<node id="11105026819" x="332046.57" y="5685101.19" z="0.00" type="priority" />
	<node id="11105026820" x="332029.10" y="5685066.76" z="0.00" type="priority" />
	<node id="11105026825" x="332469.57" y="5685817.60" z="0.00" type="priority" />
	<node id="11105026844" x="331833.43" y="5686693.16" z="0.00" type="priority" />
	<node id="11105026845" x="331420.90" y="5686505.28" z="0.00" type="priority" />
	<node id="11105026846" x="331433.54" y="5686499.26" z="0.00" type="priority" />
	<node id="11107525701" x="331929.03" y="5681221.67" z="0.00" type="priority" />
	<node id="11107525703" x="331916.86" y="5681171.66" z="0.00" type="priority" />
	<node id="11107525704" x="331957.85" y="5681178.53" z="0.00" type="priority" />
	<node id="11108002252" x="332912.27" y="5683062.26" z="0.00" type="priority" />
	<node id="11108002254" x="332968.16" y="5683098.62" z="0.00" type="priority" />
	<node id="11108022048" x="332900.07" y="5683041.57" z="0.00" type="priority" />
	<node id="11108022049" x="332887.25" y="5683036.22" z="0.00" type="priority" />
	<node id="11108022050" x="332892.65" y="5683038.43" z="0.00" type="priority" />
	<node id="11108022051" x="332885.38" y="5683041.08" z="0.00" type="priority" />
	<node id="11108022055" x="332901.70" y="5683016.33" z="0.00" type="priority" />
	<node id="11110286411" x="331981.34" y="5683405.04" z="0.00" type="priority" />
	<node id="11110286414" x="332004.29" y="5683350.81" z="0.00" type="priority" />
	<node id="11119887173" x="331694.36" y="5683104.19" z="0.00" type="priority" />
	<node id="11119887177" x="331631.36" y="5683012.59" z="0.00" type="priority" />
	<node id="11123724244" x="331881.23" y="5683506.25" z="0.00" type="priority" />
	<node id="11123724246" x="331834.61" y="5683527.36" z="0.00" type="priority" />
	<node id="11123724247" x="331877.55" y="5683519.23" z="0.00" type="priority" />
	<node id="11123724248" x="331878.22" y="5683516.88" z="0.00" type="priority" />
	<node id="11123724295" x="331683.96" y="5683493.62" z="0.00" type="priority" />
	<node id="11123724296" x="331679.31" y="5683514.04" z="0.00" type="priority" />
	<node id="11228129152" x="332187.84" y="5684368.28" z="0.00" type="priority" />
	<node id="11228129166" x="332080.64" y="5684326.00" z="0.00" type="priority" />
	<node id="11228129179" x="332195.21" y="5684471.43" z="0.00" type="priority" />
	<node id="11228129180" x="332253.41" y="5684505.12" z="0.00" type="priority" />
	<node id="11228129183" x="332205.43" y="5684480.01" z="0.00" type="priority" />
	<node id="11228129187" x="332172.51" y="5684415.55" z="0.00" type="priority" />
	<node id="11228129194" x="332145.71" y="5684428.67" z="0.00" type="priority" />
	<node id="11228129201" x="332374.28" y="5684260.21" z="0.00" type="priority" />
	<node id="11228129209" x="331495.59" y="5683962.76" z="0.00" type="priority" />
	<node id="11228129217" x="331466.60" y="5683895.49" z="0.00" type="priority" />
	<node id="11358290319" x="328129.57" y="5682464.31" z="0.00" type="priority" />
	<node id="11359647197" x="332093.67" y="5683866.03" z="0.00" type="priority" />
	<node id="11361392612" x="332590.89" y="5686152.14" z="0.00" type="priority" />
	<node id="11361392613" x="332586.05" y="5686132.31" z="0.00" type="priority" />
	<node id="11559230929" x="331294.14" y="5683518.26" z="0.00" type="priority" />
	<node id="11559230930" x="331324.04" y="5683525.86" z="0.00" type="priority" />
	<node id="1163878867" x="331900.87" y="5681718.15" z="0.00" type="priority" />
	<node id="1163878877" x="331917.12" y="5681770.78" z="0.00" type="priority" />
	<node id="1163878914" x="331811.30" y="5682253.35" z="0.00" type="priority" />
	<node id="1163878938" x="331892.77" y="5682462.01" z="0.00" type="priority" />
	<node id="1164668951" x="332084.42" y="5684805.27" z="0.00" type="priority" />
	<node id="1166162864" x="333342.66" y="5685901.85" z="0.00" type="priority" />
	<node id="1166162873" x="333372.09" y="5685976.52" z="0.00" type="priority" />
	<node id="1166163199" x="332707.85" y="5686094.29" z="0.00" type="priority" />
	<node id="1178783682" x="332651.85" y="5681230.39" z="0.00" type="priority" />
	<node id="1188548630" x="332466.96" y="5680893.71" z="0.00" type="priority" />
	<node id="1188548656" x="332590.10" y="5681114.60" z="0.00" type="priority" />
	<node id="1190348532" x="331225.94" y="5684247.17" z="0.00" type="priority" />
	<node id="1190353263" x="331887.80" y="5682474.28" z="0.00" type="priority" />
	<node id="1190353265" x="332002.50" y="5682297.85" z="0.00" type="priority" />
	<node id="11950428607" x="332333.63" y="5684528.90" z="0.00" type="priority" />
	<node id="11950428617" x="332328.21" y="5684540.47" z="0.00" type="priority" />
	<node id="11950428623" x="332434.65" y="5684542.77" z="0.00" type="priority" />
	<node id="11984362497" x="330583.43" y="5685480.09" z="0.00" type="priority" />
	<node id="11984362500" x="330575.75" y="5685440.99" z="0.00" type="priority" />
	<node id="11984362525" x="330633.64" y="5685695.61" z="0.00" type="priority" />
	<node id="11984362528" x="330612.19" y="5685620.83" z="0.00" type="priority" />
	<node id="11984362530" x="330625.07" y="5685664.18" z="0.00" type="priority" />
	<node id="11984362541" x="330632.92" y="5685643.81" z="0.00" type="priority" />
	<node id="11984362542" x="330680.95" y="5685632.09" z="0.00" type="priority" />
	<node id="12258736908" x="330997.27" y="5683310.68" z="0.00" type="priority" />
	<node id="12258751569" x="331366.02" y="5683395.67" z="0.00" type="priority" />
	<node id="12258760984" x="330870.31" y="5683274.87" z="0.00" type="priority" />
	<node id="12258760985" x="330851.82" y="5683292.94" z="0.00" type="priority" />
	<node id="1240343757" x="331834.89" y="5683495.67" z="0.00" type="priority" />
	<node id="12451356058" x="330848.45" y="5684892.61" z="0.00" type="priority" />
	<node id="12451409054" x="331723.94" y="5682969.76" z="0.00" type="priority" />
	<node id="12451409056" x="331757.40" y="5683081.82" z="0.00" type="priority" />
	<node id="12451409057" x="331766.68" y="5683061.60" z="0.00" type="priority" />
	<node id="12451409075" x="331606.75" y="5683062.61" z="0.00" type="priority" />
	<node id="1248817706" x="331658.36" y="5681933.79" z="0.00" type="priority" />
	<node id="1248817713" x="331610.67" y="5681943.51" z="0.00" type="priority" />
	<node id="1248817744" x="331646.09" y="5681935.91" z="0.00" type="priority" />
	<node id="12553772190" x="331986.26" y="5683418.67" z="0.00" type="priority" />
	<node id="12553778000" x="330174.39" y="5683141.24" z="0.00" type="priority" />
	<node id="12553788691" x="332015.53" y="5683433.48" z="0.00" type="priority" />
	<node id="12553788692" x="332020.01" y="5683435.17" z="0.00" type="priority" />
	<node id="12553789796" x="331924.21" y="5683389.21" z="0.00" type="priority" />
	<node id="12553809351" x="332161.21" y="5683424.89" z="0.00" type="priority" />
	<node id="12553809352" x="332149.37" y="5683465.41" z="0.00" type="priority" />
	<node id="12553810622" x="332102.38" y="5683581.50" z="0.00" type="priority" />
	<node id="12553810623" x="332106.64" y="5683583.30" z="0.00" type="priority" />
	<node id="12567395081" x="332657.04" y="5686243.59" z="0.00" type="priority" />
	<node id="12603762935" x="331621.85" y="5681007.69" z="0.00" type="priority" />
	<node id="12643328812" x="332086.09" y="5684362.27" z="0.00" type="priority" />
	<node id="12643328813" x="332092.83" y="5684410.72" z="0.00" type="priority" />
	<node id="12643328814" x="332114.96" y="5684445.42" z="0.00" type="priority" />
	<node id="12643328815" x="332169.08" y="5684456.45" z="0.00" type="priority" />
	<node id="12643328816" x="332267.09" y="5684510.83" z="0.00" type="priority" />
	<node id="12643328817" x="332322.24" y="5684537.16" z="0.00" type="priority" />
	<node id="12643328818" x="332375.62" y="5684540.11" z="0.00" type="priority" />
	<node id="12643328823" x="331207.28" y="5683802.19" z="0.00" type="priority" />
	<node id="12643328824" x="331287.31" y="5683801.80" z="0.00" type="priority" />
	<node id="12643328825" x="331289.78" y="5683791.63" z="0.00" type="priority" />
	<node id="12643328826" x="331291.09" y="5683786.08" z="0.00" type="priority" />
	<node id="12643328827" x="331294.80" y="5683770.83" z="0.00" type="priority" />
	<node id="12643328828" x="331217.67" y="5683802.15" z="0.00" type="priority" />
	<node id="12643328831" x="331230.29" y="5683727.04" z="0.00" type="priority" />
	<node id="12643328837" x="331261.89" y="5683822.48" z="0.00" type="priority" />
	<node id="12643328840" x="331234.13" y="5683816.23" z="0.00" type="priority" />
	<node id="12643328841" x="331284.16" y="5683816.67" z="0.00" type="priority" />
	<node id="12643328847" x="331275.14" y="5683728.25" z="0.00" type="priority" />
	<node id="12944695222" x="330276.94" y="5680686.51" z="0.00" type="priority" />
	<node id="12945530066" x="332010.19" y="5681562.49" z="0.00" type="priority" />
	<node id="12945530067" x="332015.52" y="5681564.36" z="0.00" type="priority" />
	<node id="12945571093" x="332052.28" y="5681518.82" z="0.00" type="priority" />
	<node id="12945581663" x="332268.40" y="5681372.94" z="0.00" type="priority" />
	<node id="12977375630" x="331787.69" y="5683448.92" z="0.00" type="priority" />
	<node id="12977375642" x="331827.68" y="5683497.02" z="0.00" type="priority" />
	<node id="12977375661" x="331886.43" y="5683372.17" z="0.00" type="priority" />
	<node id="12977375662" x="331889.91" y="5683373.44" z="0.00" type="priority" />
	<node id="12977375663" x="331885.08" y="5683383.95" z="0.00" type="priority" />
	<node id="13050093981" x="331876.06" y="5680895.69" z="0.00" type="priority" />
	<node id="13050093982" x="331874.42" y="5680901.66" z="0.00" type="priority" />
	<node id="13093870572" x="330950.26" y="5682077.27" z="0.00" type="priority" />
	<node id="13093874501" x="331749.22" y="5681368.03" z="0.00" type="priority" />
	<node id="13093874504" x="331760.08" y="5681382.16" z="0.00" type="priority" />
	<node id="13093874505" x="331762.16" y="5681388.35" z="0.00" type="priority" />
	<node id="1318820572" x="333920.37" y="5685495.17" z="0.00" type="priority" />
	<node id="1331083783" x="331218.86" y="5683370.85" z="0.00" type="priority" />
	<node id="1331083820" x="331203.83" y="5683720.21" z="0.00" type="priority" />
	<node id="1331096057" x="330071.87" y="5686572.68" z="0.00" type="priority" />
	<node id="1331096070" x="330003.36" y="5686658.87" z="0.00" type="priority" />
	<node id="1395174081" x="333180.73" y="5685158.10" z="0.00" type="priority" />
	<node id="1395174083" x="332864.47" y="5685331.71" z="0.00" type="priority" />
	<node id="1395174085" x="332917.27" y="5685402.27" z="0.00" type="priority" />
	<node id="1396204448" x="332560.60" y="5685834.57" z="0.00" type="priority" />
	<node id="1413103842" x="330173.92" y="5686545.94" z="0.00" type="priority" />
	<node id="1433780885" x="333051.22" y="5683879.57" z="0.00" type="priority" />
	<node id="1433780886" x="333229.76" y="5683905.47" z="0.00" type="priority" />
	<node id="1433780894" x="333348.22" y="5683992.63" z="0.00" type="priority" />
	<node id="1433780897" x="333290.70" y="5684041.88" z="0.00" type="priority" />
	<node id="1433780899" x="333834.07" y="5684349.02" z="0.00" type="priority" />
	<node id="1433780901" x="333845.07" y="5684449.20" z="0.00" type="priority" />
	<node id="1433780913" x="334517.85" y="5684664.98" z="0.00" type="priority" />
	<node id="1433780919" x="334437.52" y="5684887.12" z="0.00" type="priority" />
	<node id="1435211737" x="333759.26" y="5683615.05" z="0.00" type="priority" />
	<node id="1448987645" x="333949.06" y="5683442.60" z="0.00" type="priority" />
	<node id="1448987655" x="333529.61" y="5683826.08" z="0.00" type="priority" />
	<node id="1448987676" x="333316.78" y="5684132.84" z="0.00" type="priority" />
	<node id="1448987679" x="333561.49" y="5684313.75" z="0.00" type="priority" />
	<node id="1448987681" x="333229.15" y="5684373.93" z="0.00" type="priority" />
	<node id="1448987683" x="333331.51" y="5684528.83" z="0.00" type="priority" />
	<node id="1448987688" x="333129.51" y="5684711.45" z="0.00" type="priority" />
	<node id="1459486600" x="332109.64" y="5684673.65" z="0.00" type="priority" />
	<node id="1483760391" x="333687.04" y="5684688.77" z="0.00" type="priority" />
	<node id="1483760394" x="334158.16" y="5684750.98" z="0.00" type="priority" />
	<node id="1483760403" x="333937.38" y="5684959.33" z="0.00" type="priority" />
	<node id="1483760408" x="333647.21" y="5685224.22" z="0.00" type="priority" />
	<node id="1483760415" x="333604.57" y="5685265.01" z="0.00" type="priority" />
	<node id="1652070334" x="332473.20" y="5682900.03" z="0.00" type="priority" />
	<node id="168764777" x="333247.67" y="5684096.49" z="0.00" type="priority" />
	<node id="168764795" x="333115.45" y="5684204.00" z="0.00" type="priority" />
	<node id="168764808" x="333050.13" y="5684256.44" z="0.00" type="priority" />
	<node id="168764871" x="332173.33" y="5683814.47" z="0.00" type="priority" />
	<node id="168764890" x="332086.03" y="5683781.50" z="0.00" type="priority" />
	<node id="168764897" x="332003.52" y="5683758.44" z="0.00" type="priority" />
	<node id="168764917" x="331855.26" y="5683667.87" z="0.00" type="priority" />
	<node id="1730893038" x="331230.81" y="5684175.15" z="0.00" type="priority" />
	<node id="1730893039" x="331250.67" y="5684173.23" z="0.00" type="priority" />
	<node id="1730893041" x="331337.45" y="5684212.01" z="0.00" type="priority" />
	<node id="1735900024" x="332212.61" y="5683470.12" z="0.00" type="priority" />
	<node id="1840477121" x="332361.51" y="5683057.56" z="0.00" type="priority" />
	<node id="1840477176" x="332088.50" y="5683821.76" z="0.00" type="priority" />
	<node id="1840477177" x="332069.45" y="5683882.84" z="0.00" type="priority" />
	<node id="1929727138" x="332506.97" y="5686589.90" z="0.00" type="priority" />
	<node id="1929727161" x="332605.61" y="5686707.61" z="0.00" type="priority" />
	<node id="1986600510" x="332112.97" y="5683585.95" z="0.00" type="priority" />
	<node id="1986865918" x="332314.24" y="5683670.01" z="0.00" type="priority" />
	<node id="1986869986" x="332408.90" y="5683725.04" z="0.00" type="priority" />
	<node id="1986869988" x="332409.05" y="5683825.70" z="0.00" type="priority" />
	<node id="1988907738" x="332287.21" y="5683546.23" z="0.00" type="priority" />
	<node id="2012780794" x="333266.82" y="5685906.49" z="0.00" type="priority" />
	<node id="2012780796" x="333260.38" y="5686020.03" z="0.00" type="priority" />
	<node id="2012780808" x="333305.78" y="5685925.32" z="0.00" type="priority" />
	<node id="2012780825" x="333188.66" y="5686052.33" z="0.00" type="priority" />
	<node id="202049588" x="334924.14" y="5684640.83" z="0.00" type="priority" />
	<node id="2036815223" x="330749.73" y="5686714.60" z="0.00" type="priority" />
	<node id="2036815225" x="330747.41" y="5686719.57" z="0.00" type="priority" />
	<node id="2036815228" x="330865.59" y="5686773.14" z="0.00" type="priority" />
	<node id="2069622026" x="333622.97" y="5685775.60" z="0.00" type="priority" />
	<node id="2122150470" x="332353.62" y="5683348.78" z="0.00" type="priority" />
	<node id="2122150473" x="332496.02" y="5683410.33" z="0.00" type="priority" />
	<node id="2122437448" x="333243.12" y="5684082.98" z="0.00" type="priority" />
	<node id="2122443361" x="332423.93" y="5683577.85" z="0.00" type="priority" />
	<node id="2122444011" x="332554.28" y="5684402.42" z="0.00" type="priority" />
	<node id="2122446791" x="333192.58" y="5683968.68" z="0.00" type="priority" />
	<node id="2143334113" x="332238.54" y="5684218.53" z="0.00" type="priority" />
	<node id="2154418418" x="332394.20" y="5683591.36" z="0.00" type="priority" />
	<node id="2154418422" x="333088.27" y="5683962.38" z="0.00" type="priority" />
	<node id="2154457540" x="329090.81" y="5683203.11" z="0.00" type="priority" />
	<node id="2154457542" x="330879.03" y="5683266.34" z="0.00" type="priority" />
	<node id="2154457543" x="332451.13" y="5683219.24" z="0.00" type="priority" />
	<node id="2154457545" x="332479.65" y="5683288.08" z="0.00" type="priority" />
	<node id="2154457547" x="330833.56" y="5683310.79" z="0.00" type="priority" />
	<node id="2154457548" x="332451.42" y="5683263.66" z="0.00" type="priority" />
	<node id="2154457551" x="332485.71" y="5683275.19" z="0.00" type="priority" />
	<node id="2154457552" x="332425.69" y="5683279.67" z="0.00" type="priority" />
	<node id="2154457553" x="332503.91" y="5683282.52" z="0.00" type="priority" />
	<node id="2154457554" x="330805.05" y="5683338.48" z="0.00" type="priority" />
	<node id="2154457555" x="332441.95" y="5683286.60" z="0.00" type="priority" />
	<node id="2154457556" x="330988.53" y="5683341.01" z="0.00" type="priority" />
	<node id="2154457557" x="332473.82" y="5683300.87" z="0.00" type="priority" />
	<node id="2154457559" x="332256.21" y="5683432.98" z="0.00" type="priority" />
	<node id="2154457560" x="332241.32" y="5683471.08" z="0.00" type="priority" />
	<node id="2154457561" x="331078.01" y="5683617.77" z="0.00" type="priority" />
	<node id="2154616853" x="331551.19" y="5684400.99" z="0.00" type="priority" />
	<node id="2154616858" x="331533.30" y="5684442.96" z="0.00" type="priority" />
	<node id="2154616878" x="331565.86" y="5684474.64" z="0.00" type="priority" />
	<node id="2154634832" x="332760.20" y="5680835.20" z="0.00" type="priority" />
	<node id="2154667147" x="332195.88" y="5683762.02" z="0.00" type="priority" />
	<node id="2199293738" x="332373.60" y="5683899.72" z="0.00" type="priority" />
	<node id="2199293739" x="332289.95" y="5683864.17" z="0.00" type="priority" />
	<node id="2202189188" x="330671.15" y="5685367.88" z="0.00" type="priority" />
	<node id="2269911708" x="332017.12" y="5681048.22" z="0.00" type="priority" />
	<node id="2269911713" x="331953.51" y="5681049.13" z="0.00" type="priority" />
	<node id="2271121131" x="330659.90" y="5685375.63" z="0.00" type="priority" />
	<node id="2271121137" x="330747.12" y="5685464.14" z="0.00" type="priority" />
	<node id="2271121151" x="330552.24" y="5685625.15" z="0.00" type="priority" />
	<node id="2273419605" x="334837.23" y="5682859.62" z="0.00" type="priority" />
	<node id="2291414981" x="330781.99" y="5682685.10" z="0.00" type="priority" />
	<node id="2300532275" x="329463.18" y="5683110.10" z="0.00" type="priority" />
	<node id="2307755097" x="331882.20" y="5681113.09" z="0.00" type="priority" />
	<node id="2383224146" x="332784.80" y="5686406.83" z="0.00" type="priority" />
	<node id="2383224154" x="332212.82" y="5686629.40" z="0.00" type="priority" />
	<node id="2405838259" x="332529.69" y="5686159.89" z="0.00" type="priority" />
	<node id="2405838262" x="332664.51" y="5686235.35" z="0.00" type="priority" />
	<node id="2405838268" x="332676.14" y="5686242.63" z="0.00" type="priority" />
	<node id="2405838271" x="332604.26" y="5686243.80" z="0.00" type="priority" />
	<node id="2453449156" x="331432.59" y="5683915.47" z="0.00" type="priority" />
	<node id="2476618579" x="332907.43" y="5684647.45" z="0.00" type="priority" />
	<node id="2476618583" x="332894.07" y="5684704.02" z="0.00" type="priority" />
	<node id="2476669307" x="333029.99" y="5684282.00" z="0.00" type="priority" />
	<node id="2476669352" x="333097.56" y="5684330.35" z="0.00" type="priority" />
	<node id="2476669354" x="333141.51" y="5684330.86" z="0.00" type="priority" />
	<node id="2476669381" x="333109.47" y="5684343.13" z="0.00" type="priority" />
	<node id="2476669431" x="333131.94" y="5684349.42" z="0.00" type="priority" />
	<node id="2476669433" x="333175.83" y="5684348.38" z="0.00" type="priority" />
	<node id="2476669435" x="333112.84" y="5684351.11" z="0.00" type="priority" />
	<node id="2476669448" x="333136.08" y="5684356.21" z="0.00" type="priority" />
	<node id="2476669481" x="333160.87" y="5684370.91" z="0.00" type="priority" />
	<node id="2476669494" x="333158.85" y="5684373.95" z="0.00" type="priority" />
	<node id="2476669504" x="333169.12" y="5684376.94" z="0.00" type="priority" />
	<node id="2476669540" x="333142.83" y="5684395.03" z="0.00" type="priority" />
	<node id="2476669557" x="333185.04" y="5684398.43" z="0.00" type="priority" />
	<node id="2476669559" x="333084.67" y="5684402.04" z="0.00" type="priority" />
	<node id="2476669603" x="333124.73" y="5684410.45" z="0.00" type="priority" />
	<node id="2476669611" x="333129.14" y="5684411.18" z="0.00" type="priority" />
	<node id="2476669626" x="333126.00" y="5684415.25" z="0.00" type="priority" />
	<node id="2476669718" x="333191.43" y="5684434.68" z="0.00" type="priority" />
	<node id="2476669734" x="332853.86" y="5684450.05" z="0.00" type="priority" />
	<node id="2476669740" x="333205.24" y="5684441.63" z="0.00" type="priority" />
	<node id="2476669759" x="333203.09" y="5684450.84" z="0.00" type="priority" />
	<node id="2476669767" x="333199.79" y="5684456.02" z="0.00" type="priority" />
	<node id="2476669771" x="333195.30" y="5684463.29" z="0.00" type="priority" />
	<node id="2476669794" x="333121.90" y="5684478.19" z="0.00" type="priority" />
	<node id="2476669797" x="333180.98" y="5684477.45" z="0.00" type="priority" />
	<node id="2476669802" x="333187.36" y="5684480.31" z="0.00" type="priority" />
	<node id="2476669807" x="333176.45" y="5684481.62" z="0.00" type="priority" />
	<node id="2476669813" x="333171.84" y="5684485.74" z="0.00" type="priority" />
	<node id="2476669817" x="333099.07" y="5684489.39" z="0.00" type="priority" />
	<node id="2476669831" x="333210.86" y="5684490.35" z="0.00" type="priority" />
	<node id="2476669859" x="333180.64" y="5684500.22" z="0.00" type="priority" />
	<node id="2476669915" x="333229.18" y="5684502.24" z="0.00" type="priority" />
	<node id="2476670090" x="333154.82" y="5684533.97" z="0.00" type="priority" />
	<node id="2507708471" x="332637.26" y="5686618.64" z="0.00" type="priority" />
	<node id="2507708472" x="332669.96" y="5686618.88" z="0.00" type="priority" />
	<node id="256862758" x="332797.07" y="5682879.18" z="0.00" type="priority" />
	<node id="256862760" x="332542.46" y="5683093.87" z="0.00" type="priority" />
	<node id="256862764" x="332340.72" y="5683235.20" z="0.00" type="priority" />
	<node id="256862790" x="332278.23" y="5682936.35" z="0.00" type="priority" />
	<node id="256862793" x="332395.65" y="5682988.11" z="0.00" type="priority" />
	<node id="256862803" x="328874.11" y="5681207.93" z="0.00" type="priority" />
	<node id="2589520375" x="331479.13" y="5684448.89" z="0.00" type="priority" />
	<node id="2590004596" x="331499.55" y="5684505.58" z="0.00" type="priority" />
	<node id="2590004605" x="331648.57" y="5684629.42" z="0.00" type="priority" />
	<node id="2590004608" x="331661.10" y="5684618.04" z="0.00" type="priority" />
	<node id="2590004609" x="331607.76" y="5684563.06" z="0.00" type="priority" />
	<node id="2590004619" x="332635.23" y="5686376.08" z="0.00" type="priority" />
	<node id="2590004817" x="331620.90" y="5684633.92" z="0.00" type="priority" />
	<node id="2590004821" x="331479.83" y="5684484.28" z="0.00" type="priority" />
	<node id="2590004831" x="331509.26" y="5683879.69" z="0.00" type="priority" />
	<node id="2590004840" x="330991.73" y="5683295.81" z="0.00" type="priority" />
	<node id="2590004841" x="331000.85" y="5683298.24" z="0.00" type="priority" />
	<node id="2590004842" x="331173.34" y="5683353.67" z="0.00" type="priority" />
	<node id="2590015477" x="332562.30" y="5682797.68" z="0.00" type="priority" />
	<node id="2590015481" x="332835.00" y="5682849.49" z="0.00" type="priority" />
	<node id="2590015494" x="332651.28" y="5683211.58" z="0.00" type="priority" />
	<node id="2590015498" x="332690.87" y="5683392.10" z="0.00" type="priority" />
	<node id="2590015499" x="332697.82" y="5683374.36" z="0.00" type="priority" />
	<node id="2590015501" x="332791.93" y="5683338.54" z="0.00" type="priority" />
	<node id="2590015502" x="332812.01" y="5683292.08" z="0.00" type="priority" />
	<node id="2590015508" x="332762.82" y="5683333.50" z="0.00" type="priority" />
	<node id="2590015510" x="332780.33" y="5683342.84" z="0.00" type="priority" />
	<node id="2590015515" x="332793.46" y="5683320.14" z="0.00" type="priority" />
	<node id="2590015517" x="332735.69" y="5683283.50" z="0.00" type="priority" />
	<node id="2590015534" x="332774.73" y="5683412.35" z="0.00" type="priority" />
	<node id="2590015543" x="332702.36" y="5683382.07" z="0.00" type="priority" />
	<node id="2590015563" x="332163.61" y="5683416.35" z="0.00" type="priority" />
	<node id="2590015577" x="331816.22" y="5684686.83" z="0.00" type="priority" />
	<node id="2590049347" x="332302.25" y="5683835.75" z="0.00" type="priority" />
	<node id="2590049349" x="332385.90" y="5683871.84" z="0.00" type="priority" />
	<node id="2590049351" x="332296.08" y="5683850.56" z="0.00" type="priority" />
	<node id="2590049357" x="332557.35" y="5683807.93" z="0.00" type="priority" />
	<node id="2590049359" x="332544.76" y="5683837.43" z="0.00" type="priority" />
	<node id="2590049362" x="332533.33" y="5683861.24" z="0.00" type="priority" />
	<node id="2590049378" x="332453.31" y="5683761.81" z="0.00" type="priority" />
	<node id="259614847" x="330337.42" y="5686519.00" z="0.00" type="priority" />
	<node id="2600987662" x="332027.96" y="5681548.45" z="0.00" type="priority" />
	<node id="2600987667" x="333613.22" y="5680840.05" z="0.00" type="priority" />
	<node id="262352972" x="331368.98" y="5686850.78" z="0.00" type="priority" />
	<node id="262352991" x="331360.02" y="5686866.38" z="0.00" type="priority" />
	<node id="264133359" x="330877.65" y="5684847.58" z="0.00" type="priority" />
	<node id="264133360" x="330829.20" y="5684921.83" z="0.00" type="priority" />
	<node id="264133362" x="330684.54" y="5685305.64" z="0.00" type="priority" />
	<node id="264133370" x="330577.16" y="5685987.16" z="0.00" type="priority" />
	<node id="264133373" x="330382.26" y="5686245.92" z="0.00" type="priority" />
	<node id="264134778" x="332662.78" y="5686490.41" z="0.00" type="priority" />
	<node id="266396073" x="332381.11" y="5686585.25" z="0.00" type="priority" />
	<node id="269577192" x="332772.75" y="5686875.97" z="0.00" type="priority" />
	<node id="269577193" x="332744.19" y="5686869.00" z="0.00" type="priority" />