<?xml version="1.0" ?>
<!-- Generated by MOSAIC scenario-convert 25.0 -->
<routes>
    <vType id="TaxiSumo" vClass="taxi" personCapacity="4" maxSpeed="50">
        <param key="has.taxi.device" value="true"/>
        <param key="device.taxi.pickUpDuration" value="20"/>
        <param key="device.taxi.dropOffDuration" value="60"/>
    </vType>

<!--    <vehicle id="t1" type="TaxiSumo" route="1" depart="0.00" departPos="free" line="taxi"/>-->
<!--    <person id="p1" depart="0.00" color="green">-->
<!--        <ride from="" to="" lines="taxi"/>-->
<!--    </person>-->
</routes>
