<?xml version="1.0" ?>
<routes>
    <person id="p1" depart="7">
        <ride from="25790390" to="-25415039#3" lines="taxi"/>
    </person>
    <person id="p2" depart="14">
        <ride from="25939498#3" to="-25415039#3" lines="taxi"/>
    </person>
    <person id="p3" depart="16">
        <ride from="-18784601#1" to="-25415039#3" lines="taxi"/>
    </person>
    <person id="p4" depart="20">
        <ride from="-18784601#1" to="-25415039#3" lines="taxi"/>
    </person>
    <person id="p5" depart="31">
        <ride from="28124696#0" to="-25415039#3" lines="taxi"/>
    </person>
    <person id="p6" depart="33">
        <ride from="-25790384" to="-25415039#3" lines="taxi"/>
    </person>
    <person id="p7" depart="37">
        <ride from="-1022042157#2" to="-25415039#3" lines="taxi"/>
    </person>
    <person id="p8" depart="42">
        <ride from="28140027#0" to="-25415039#3" lines="taxi"/>
    </person>
    <person id="p9" depart="47">
        <ride from="44443593#2" to="-25415039#3" lines="taxi"/>
    </person>
    <person id="p10" depart="53">
        <ride from="37996159#1" to="-25415039#3" lines="taxi"/>
    </person>
    <person id="p11" depart="68">
        <ride from="-25415038#4" to="-25415039#3" lines="taxi"/>
    </person>
    <person id="p12" depart="69">
        <ride from="-661814892" to="-25415039#3" lines="taxi"/>
    </person>
    <person id="p13" depart="85">
        <ride from="44443593#2" to="-25415039#3" lines="taxi"/>
    </person>
    <person id="p14" depart="92">
        <ride from="-1022042157#2" to="-25415039#3" lines="taxi"/>
    </person>
    <person id="p15" depart="93">
        <ride from="37996159#1" to="-25415039#3" lines="taxi"/>
    </person>
    <person id="p16" depart="93">
        <ride from="1189365209" to="-25415039#3" lines="taxi"/>
    </person>
    <person id="p17" depart="101">
        <ride from="-122259339#5" to="-25415039#3" lines="taxi"/>
    </person>
    <person id="p18" depart="108">
        <ride from="28124693#0" to="-25415039#3" lines="taxi"/>
    </person>
    <person id="p19" depart="116">
        <ride from="289937319" to="-25415039#3" lines="taxi"/>
    </person>
    <person id="p20" depart="118">
        <ride from="-60702646" to="-25415039#3" lines="taxi"/>
    </person>
    <person id="p21" depart="129">
        <ride from="-75902756#1" to="-25415039#3" lines="taxi"/>
    </person>
    <person id="p22" depart="134">
        <ride from="-674298787#0" to="-25415039#3" lines="taxi"/>
    </person>
    <person id="p23" depart="138">
        <ride from="25790390" to="-25415039#3" lines="taxi"/>
    </person>
    <person id="p24" depart="147">
        <ride from="-122259339#5" to="-25415039#3" lines="taxi"/>
    </person>
    <person id="p25" depart="147">
        <ride from="-28132132#0" to="-25415039#3" lines="taxi"/>
    </person>
    <person id="p26" depart="151">
        <ride from="-28004236" to="-25415039#3" lines="taxi"/>
    </person>
    <person id="p27" depart="154">
        <ride from="-122259339#5" to="-25415039#3" lines="taxi"/>
    </person>
    <person id="p28" depart="158">
        <ride from="24996585#0" to="-25415039#3" lines="taxi"/>
    </person>
    <person id="p29" depart="163">
        <ride from="-742449277#0" to="-25415039#3" lines="taxi"/>
    </person>
    <person id="p30" depart="164">
        <ride from="-25727611#1" to="-25415039#3" lines="taxi"/>
    </person>
    <person id="p31" depart="174">
        <ride from="25939498#3" to="-25415039#3" lines="taxi"/>
    </person>
    <person id="p32" depart="176">
        <ride from="-252947536#1" to="-25415039#3" lines="taxi"/>
    </person>
    <person id="p33" depart="178">
        <ride from="1021479206#5" to="-25415039#3" lines="taxi"/>
    </person>
    <person id="p34" depart="194">
        <ride from="26668849#2" to="-25415039#3" lines="taxi"/>
    </person>
    <person id="p35" depart="195">
        <ride from="26668849#2" to="-25415039#3" lines="taxi"/>
    </person>
    <person id="p36" depart="196">
        <ride from="-28004236" to="-25415039#3" lines="taxi"/>
    </person>
    <person id="p37" depart="209">
        <ride from="-18784601#1" to="-25415039#3" lines="taxi"/>
    </person>
    <person id="p38" depart="226">
        <ride from="-18784601#1" to="-25415039#3" lines="taxi"/>
    </person>
    <person id="p39" depart="250">
        <ride from="44642805#0" to="-25415039#3" lines="taxi"/>
    </person>
    <person id="p40" depart="256">
        <ride from="44642805#0" to="-25415039#3" lines="taxi"/>
    </person>
    <person id="p41" depart="257">
        <ride from="28124696#0" to="-25415039#3" lines="taxi"/>
    </person>
    <person id="p42" depart="264">
        <ride from="25790390" to="-25415039#3" lines="taxi"/>
    </person>
    <person id="p43" depart="283">
        <ride from="-252947536#1" to="-25415039#3" lines="taxi"/>
    </person>
    <person id="p44" depart="289">
        <ride from="-25415038#4" to="-25415039#3" lines="taxi"/>
    </person>
    <person id="p45" depart="307">
        <ride from="-25790384" to="-25415039#3" lines="taxi"/>
    </person>
    <person id="p46" depart="308">
        <ride from="28124696#0" to="-25415039#3" lines="taxi"/>
    </person>
    <person id="p47" depart="311">
        <ride from="-75902756#1" to="-25415039#3" lines="taxi"/>
    </person>
    <person id="p48" depart="313">
        <ride from="37996159#1" to="-25415039#3" lines="taxi"/>
    </person>
    <person id="p49" depart="319">
        <ride from="28124696#0" to="-25415039#3" lines="taxi"/>
    </person>
    <person id="p50" depart="325">
        <ride from="-742449277#0" to="-25415039#3" lines="taxi"/>
    </person>
    <person id="p51" depart="326">
        <ride from="25593376#3" to="-25415039#3" lines="taxi"/>
    </person>
    <person id="p52" depart="327">
        <ride from="37996159#1" to="-25415039#3" lines="taxi"/>
    </person>
    <person id="p53" depart="341">
        <ride from="132619396#0" to="-25415039#3" lines="taxi"/>
    </person>
    <person id="p54" depart="350">
        <ride from="28725589" to="-25415039#3" lines="taxi"/>
    </person>
    <person id="p55" depart="374">
        <ride from="-60702646" to="-25415039#3" lines="taxi"/>
    </person>
    <person id="p56" depart="376">
        <ride from="1189365209" to="-25415039#3" lines="taxi"/>
    </person>
    <person id="p57" depart="378">
        <ride from="-28004236" to="-25415039#3" lines="taxi"/>
    </person>
    <person id="p58" depart="383">
        <ride from="289937319" to="-25415039#3" lines="taxi"/>
    </person>
    <person id="p59" depart="389">
        <ride from="-122259339#5" to="-25415039#3" lines="taxi"/>
    </person>
    <person id="p60" depart="390">
        <ride from="25939498#3" to="-25415039#3" lines="taxi"/>
    </person>
    <person id="p61" depart="391">
        <ride from="238136480#1" to="-25415039#3" lines="taxi"/>
    </person>
    <person id="p62" depart="393">
        <ride from="-122259339#5" to="-25415039#3" lines="taxi"/>
    </person>
    <person id="p63" depart="394">
        <ride from="37996159#1" to="-25415039#3" lines="taxi"/>
    </person>
    <person id="p64" depart="398">
        <ride from="-28132132#0" to="-25415039#3" lines="taxi"/>
    </person>
    <person id="p65" depart="399">
        <ride from="-38128295#0" to="-25415039#3" lines="taxi"/>
    </person>
    <person id="p66" depart="404">
        <ride from="-253010733#1" to="-25415039#3" lines="taxi"/>
    </person>
    <person id="p67" depart="404">
        <ride from="28727437#1" to="-25415039#3" lines="taxi"/>
    </person>
    <person id="p68" depart="419">
        <ride from="44642805#0" to="-25415039#3" lines="taxi"/>
    </person>
    <person id="p69" depart="421">
        <ride from="-742449277#0" to="-25415039#3" lines="taxi"/>
    </person>
    <person id="p70" depart="434">
        <ride from="-1022042157#2" to="-25415039#3" lines="taxi"/>
    </person>
    <person id="p71" depart="435">
        <ride from="-25727611#1" to="-25415039#3" lines="taxi"/>
    </person>
    <person id="p72" depart="437">
        <ride from="24996585#0" to="-25415039#3" lines="taxi"/>
    </person>
    <person id="p73" depart="439">
        <ride from="-661814892" to="-25415039#3" lines="taxi"/>
    </person>
    <person id="p74" depart="445">
        <ride from="26668849#2" to="-25415039#3" lines="taxi"/>
    </person>
    <person id="p75" depart="460">
        <ride from="-661814892" to="-25415039#3" lines="taxi"/>
    </person>
    <person id="p76" depart="468">
        <ride from="-60702646" to="-25415039#3" lines="taxi"/>
    </person>
    <person id="p77" depart="477">
        <ride from="-25807021#2" to="-25415039#3" lines="taxi"/>
    </person>
    <person id="p78" depart="479">
        <ride from="25593376#3" to="-25415039#3" lines="taxi"/>
    </person>
    <person id="p79" depart="488">
        <ride from="-18784601#1" to="-25415039#3" lines="taxi"/>
    </person>
    <person id="p80" depart="502">
        <ride from="1361425836#1" to="-25415039#3" lines="taxi"/>
    </person>
    <person id="p81" depart="505">
        <ride from="268504689#2" to="-25415039#3" lines="taxi"/>
    </person>
    <person id="p82" depart="512">
        <ride from="1189365209" to="-25415039#3" lines="taxi"/>
    </person>
    <person id="p83" depart="512">
        <ride from="67624333" to="-25415039#3" lines="taxi"/>
    </person>
    <person id="p84" depart="512">
        <ride from="-253010733#1" to="-25415039#3" lines="taxi"/>
    </person>
    <person id="p85" depart="534">
        <ride from="44443593#2" to="-25415039#3" lines="taxi"/>
    </person>
    <person id="p86" depart="536">
        <ride from="-253010733#1" to="-25415039#3" lines="taxi"/>
    </person>
    <person id="p87" depart="537">
        <ride from="28727437#1" to="-25415039#3" lines="taxi"/>
    </person>
    <person id="p88" depart="538">
        <ride from="28124696#0" to="-25415039#3" lines="taxi"/>
    </person>
    <person id="p89" depart="538">
        <ride from="289937319" to="-25415039#3" lines="taxi"/>
    </person>
    <person id="p90" depart="539">
        <ride from="-18784601#1" to="-25415039#3" lines="taxi"/>
    </person>
    <person id="p91" depart="541">
        <ride from="1361425836#1" to="-25415039#3" lines="taxi"/>
    </person>
    <person id="p92" depart="561">
        <ride from="-60702646" to="-25415039#3" lines="taxi"/>
    </person>
    <person id="p93" depart="567">
        <ride from="1215949438" to="-25415039#3" lines="taxi"/>
    </person>
    <person id="p94" depart="569">
        <ride from="26668849#2" to="-25415039#3" lines="taxi"/>
    </person>
    <person id="p95" depart="578">
        <ride from="67624333" to="-25415039#3" lines="taxi"/>
    </person>
    <person id="p96" depart="578">
        <ride from="-38128295#0" to="-25415039#3" lines="taxi"/>
    </person>
    <person id="p97" depart="581">
        <ride from="-60702646" to="-25415039#3" lines="taxi"/>
    </person>
    <person id="p98" depart="584">
        <ride from="-238136477" to="-25415039#3" lines="taxi"/>
    </person>
    <person id="p99" depart="590">
        <ride from="-25790384" to="-25415039#3" lines="taxi"/>
    </person>
    <person id="p100" depart="599">
        <ride from="-38128295#0" to="-25415039#3" lines="taxi"/>
    </person>
</routes>
