<?xml version="1.0" ?>
<routes>
    <person id="p1" depart="3">
        <ride from="25939498#3" to="-25415039#3" lines="taxi"/>
        <ride to="374605592#0" lines="trainLine"/>
    </person>
    <person id="p2" depart="4">
        <ride from="-1022042157#2" to="-25415039#3" lines="taxi"/>
    </person>
    <person id="p3" depart="4">
        <ride from="-32091203#2" to="-25415039#3" lines="taxi"/>
    </person>
    <person id="p4" depart="11">
        <ride from="-25335407#2" to="-25415039#3" lines="taxi"/>
    </person>
    <person id="p5" depart="35">
        <ride from="-25807021#2" to="-25415039#3" lines="taxi"/>
    </person>
    <person id="p6" depart="39">
        <ride from="-32091203#2" to="-25415039#3" lines="taxi"/>
    </person>
    <person id="p7" depart="50">
        <ride from="1021479206#5" to="-25415039#3" lines="taxi"/>
    </person>
    <person id="p8" depart="54">
        <ride from="26668849#2" to="-25415039#3" lines="taxi"/>
    </person>
    <person id="p9" depart="61">
        <ride from="-25415038#4" to="-25415039#3" lines="taxi"/>
    </person>
    <person id="p10" depart="61">
        <ride from="-238136477" to="-25415039#3" lines="taxi"/>
    </person>
    <person id="p11" depart="66">
        <ride from="-674298787#0" to="-25415039#3" lines="taxi"/>
    </person>
    <person id="p12" depart="67">
        <ride from="-25727611#1" to="-25415039#3" lines="taxi"/>
    </person>
    <person id="p13" depart="75">
        <ride from="44642805#0" to="-25415039#3" lines="taxi"/>
    </person>
    <person id="p14" depart="78">
        <ride from="-28132132#0" to="-25415039#3" lines="taxi"/>
    </person>
    <person id="p15" depart="79">
        <ride from="-25727611#1" to="-25415039#3" lines="taxi"/>
    </person>
    <person id="p16" depart="84">
        <ride from="25790390" to="-25415039#3" lines="taxi"/>
    </person>
    <person id="p17" depart="104">
        <ride from="-661814892" to="-25415039#3" lines="taxi"/>
    </person>
    <person id="p18" depart="104">
        <ride from="28124696#0" to="-25415039#3" lines="taxi"/>
    </person>
    <person id="p19" depart="109">
        <ride from="-28132131" to="-25415039#3" lines="taxi"/>
    </person>
    <person id="p20" depart="114">
        <ride from="-253010733#1" to="-25415039#3" lines="taxi"/>
    </person>
    <person id="p21" depart="128">
        <ride from="1059785584#0" to="-25415039#3" lines="taxi"/>
    </person>
    <person id="p22" depart="129">
        <ride from="37996159#1" to="-25415039#3" lines="taxi"/>
    </person>
    <person id="p23" depart="137">
        <ride from="-742449277#0" to="-25415039#3" lines="taxi"/>
    </person>
    <person id="p24" depart="137">
        <ride from="-674298787#0" to="-25415039#3" lines="taxi"/>
    </person>
    <person id="p25" depart="143">
        <ride from="-1022042157#2" to="-25415039#3" lines="taxi"/>
    </person>
    <person id="p26" depart="147">
        <ride from="24996585#0" to="-25415039#3" lines="taxi"/>
    </person>
    <person id="p27" depart="151">
        <ride from="-25593394#0" to="-25415039#3" lines="taxi"/>
    </person>
    <person id="p28" depart="154">
        <ride from="-37996558#1" to="-25415039#3" lines="taxi"/>
    </person>
    <person id="p29" depart="158">
        <ride from="-28004236" to="-25415039#3" lines="taxi"/>
    </person>
    <person id="p30" depart="158">
        <ride from="289937319" to="-25415039#3" lines="taxi"/>
    </person>
    <person id="p31" depart="165">
        <ride from="-32091203#2" to="-25415039#3" lines="taxi"/>
    </person>
    <person id="p32" depart="175">
        <ride from="1361425836#1" to="-25415039#3" lines="taxi"/>
    </person>
    <person id="p33" depart="176">
        <ride from="-28132132#0" to="-25415039#3" lines="taxi"/>
    </person>
    <person id="p34" depart="178">
        <ride from="67624333" to="-25415039#3" lines="taxi"/>
    </person>
    <person id="p35" depart="181">
        <ride from="-238136477" to="-25415039#3" lines="taxi"/>
    </person>
    <person id="p36" depart="187">
        <ride from="25939498#3" to="-25415039#3" lines="taxi"/>
    </person>
    <person id="p37" depart="193">
        <ride from="-674298787#0" to="-25415039#3" lines="taxi"/>
    </person>
    <person id="p38" depart="198">
        <ride from="-28132132#0" to="-25415039#3" lines="taxi"/>
    </person>
    <person id="p39" depart="198">
        <ride from="-28004236" to="-25415039#3" lines="taxi"/>
    </person>
    <person id="p40" depart="198">
        <ride from="132619396#0" to="-25415039#3" lines="taxi"/>
    </person>
    <person id="p41" depart="201">
        <ride from="-38128295#0" to="-25415039#3" lines="taxi"/>
    </person>
    <person id="p42" depart="216">
        <ride from="44642805#0" to="-25415039#3" lines="taxi"/>
    </person>
    <person id="p43" depart="219">
        <ride from="1059785584#0" to="-25415039#3" lines="taxi"/>
    </person>
    <person id="p44" depart="225">
        <ride from="132619396#0" to="-25415039#3" lines="taxi"/>
    </person>
    <person id="p45" depart="231">
        <ride from="25790390" to="-25415039#3" lines="taxi"/>
    </person>
    <person id="p46" depart="235">
        <ride from="268504689#2" to="-25415039#3" lines="taxi"/>
    </person>
    <person id="p47" depart="238">
        <ride from="-25727611#1" to="-25415039#3" lines="taxi"/>
    </person>
    <person id="p48" depart="241">
        <ride from="-193164108#1" to="-25415039#3" lines="taxi"/>
    </person>
    <person id="p49" depart="250">
        <ride from="-252947536#1" to="-25415039#3" lines="taxi"/>
    </person>
    <person id="p50" depart="274">
        <ride from="-1022042157#2" to="-25415039#3" lines="taxi"/>
    </person>
    <person id="p51" depart="275">
        <ride from="-60702646" to="-25415039#3" lines="taxi"/>
    </person>
    <person id="p52" depart="276">
        <ride from="-28004236" to="-25415039#3" lines="taxi"/>
    </person>
    <person id="p53" depart="285">
        <ride from="268504689#2" to="-25415039#3" lines="taxi"/>
    </person>
    <person id="p54" depart="296">
        <ride from="37996159#1" to="-25415039#3" lines="taxi"/>
    </person>
    <person id="p55" depart="307">
        <ride from="37996159#1" to="-25415039#3" lines="taxi"/>
    </person>
    <person id="p56" depart="307">
        <ride from="268504689#2" to="-25415039#3" lines="taxi"/>
    </person>
    <person id="p57" depart="308">
        <ride from="238136480#1" to="-25415039#3" lines="taxi"/>
    </person>
    <person id="p58" depart="310">
        <ride from="28725589" to="-25415039#3" lines="taxi"/>
    </person>
    <person id="p59" depart="311">
        <ride from="24996585#0" to="-25415039#3" lines="taxi"/>
    </person>
    <person id="p60" depart="318">
        <ride from="-25727611#1" to="-25415039#3" lines="taxi"/>
    </person>
    <person id="p61" depart="318">
        <ride from="-742449277#0" to="-25415039#3" lines="taxi"/>
    </person>
    <person id="p62" depart="320">
        <ride from="-25593394#0" to="-25415039#3" lines="taxi"/>
    </person>
    <person id="p63" depart="325">
        <ride from="28124696#0" to="-25415039#3" lines="taxi"/>
    </person>
    <person id="p64" depart="329">
        <ride from="-28004236" to="-25415039#3" lines="taxi"/>
    </person>
    <person id="p65" depart="331">
        <ride from="28124696#0" to="-25415039#3" lines="taxi"/>
    </person>
    <person id="p66" depart="338">
        <ride from="-38128299#1" to="-25415039#3" lines="taxi"/>
    </person>
    <person id="p67" depart="358">
        <ride from="1021479206#5" to="-25415039#3" lines="taxi"/>
    </person>
    <person id="p68" depart="360">
        <ride from="-1022042157#2" to="-25415039#3" lines="taxi"/>
    </person>
    <person id="p69" depart="375">
        <ride from="24996585#0" to="-25415039#3" lines="taxi"/>
    </person>
    <person id="p70" depart="378">
        <ride from="-37996558#1" to="-25415039#3" lines="taxi"/>
    </person>
    <person id="p71" depart="381">
        <ride from="-742449277#0" to="-25415039#3" lines="taxi"/>
    </person>
    <person id="p72" depart="385">
        <ride from="-25807021#2" to="-25415039#3" lines="taxi"/>
    </person>
    <person id="p73" depart="416">
        <ride from="25593376#3" to="-25415039#3" lines="taxi"/>
    </person>
    <person id="p74" depart="421">
        <ride from="-25415038#4" to="-25415039#3" lines="taxi"/>
    </person>
    <person id="p75" depart="422">
        <ride from="24996585#0" to="-25415039#3" lines="taxi"/>
    </person>
    <person id="p76" depart="424">
        <ride from="-60702646" to="-25415039#3" lines="taxi"/>
    </person>
    <person id="p77" depart="425">
        <ride from="-25790384" to="-25415039#3" lines="taxi"/>
    </person>
    <person id="p78" depart="431">
        <ride from="-38128295#0" to="-25415039#3" lines="taxi"/>
    </person>
    <person id="p79" depart="433">
        <ride from="44642805#0" to="-25415039#3" lines="taxi"/>
    </person>
    <person id="p80" depart="453">
        <ride from="-18784601#1" to="-25415039#3" lines="taxi"/>
    </person>
    <person id="p81" depart="456">
        <ride from="-252947536#1" to="-25415039#3" lines="taxi"/>
    </person>
    <person id="p82" depart="468">
        <ride from="-193164108#1" to="-25415039#3" lines="taxi"/>
    </person>
    <person id="p83" depart="480">
        <ride from="67624333" to="-25415039#3" lines="taxi"/>
    </person>
    <person id="p84" depart="487">
        <ride from="-742449277#0" to="-25415039#3" lines="taxi"/>
    </person>
    <person id="p85" depart="491">
        <ride from="28124693#0" to="-25415039#3" lines="taxi"/>
    </person>
    <person id="p86" depart="499">
        <ride from="25790390" to="-25415039#3" lines="taxi"/>
    </person>
    <person id="p87" depart="512">
        <ride from="103093870#1" to="-25415039#3" lines="taxi"/>
    </person>
    <person id="p88" depart="515">
        <ride from="-38128299#1" to="-25415039#3" lines="taxi"/>
    </person>
    <person id="p89" depart="522">
        <ride from="132619396#0" to="-25415039#3" lines="taxi"/>
    </person>
    <person id="p90" depart="537">
        <ride from="-238136477" to="-25415039#3" lines="taxi"/>
    </person>
    <person id="p91" depart="543">
        <ride from="-18784601#1" to="-25415039#3" lines="taxi"/>
    </person>
    <person id="p92" depart="547">
        <ride from="-60702646" to="-25415039#3" lines="taxi"/>
    </person>
    <person id="p93" depart="552">
        <ride from="28725589" to="-25415039#3" lines="taxi"/>
    </person>
    <person id="p94" depart="553">
        <ride from="-60702646" to="-25415039#3" lines="taxi"/>
    </person>
    <person id="p95" depart="577">
        <ride from="-38128295#0" to="-25415039#3" lines="taxi"/>
    </person>
    <person id="p96" depart="604">
        <ride from="-25335407#2" to="-25415039#3" lines="taxi"/>
    </person>
    <person id="p97" depart="610">
        <ride from="132619396#0" to="-25415039#3" lines="taxi"/>
    </person>
    <person id="p98" depart="624">
        <ride from="-28132131" to="-25415039#3" lines="taxi"/>
    </person>
    <person id="p99" depart="630">
        <ride from="-742449277#0" to="-25415039#3" lines="taxi"/>
    </person>
    <person id="p100" depart="633">
        <ride from="238136480#1" to="-25415039#3" lines="taxi"/>
    </person>
    <person id="p101" depart="647">
        <ride from="238136480#1" to="-25415039#3" lines="taxi"/>
    </person>
    <person id="p102" depart="659">
        <ride from="1021479206#5" to="-25415039#3" lines="taxi"/>
    </person>
    <person id="p103" depart="662">
        <ride from="-75902756#1" to="-25415039#3" lines="taxi"/>
    </person>
    <person id="p104" depart="668">
        <ride from="-252947536#1" to="-25415039#3" lines="taxi"/>
    </person>
    <person id="p105" depart="675">
        <ride from="-18784601#1" to="-25415039#3" lines="taxi"/>
    </person>
    <person id="p106" depart="683">
        <ride from="-37996558#1" to="-25415039#3" lines="taxi"/>
    </person>
    <person id="p107" depart="689">
        <ride from="268504689#2" to="-25415039#3" lines="taxi"/>
    </person>
    <person id="p108" depart="706">
        <ride from="-25727611#1" to="-25415039#3" lines="taxi"/>
    </person>
    <person id="p109" depart="706">
        <ride from="-60702646" to="-25415039#3" lines="taxi"/>
    </person>
    <person id="p110" depart="710">
        <ride from="24996585#0" to="-25415039#3" lines="taxi"/>
    </person>
    <person id="p111" depart="717">
        <ride from="44443593#2" to="-25415039#3" lines="taxi"/>
    </person>
    <person id="p112" depart="718">
        <ride from="-661814892" to="-25415039#3" lines="taxi"/>
    </person>
    <person id="p113" depart="725">
        <ride from="67624333" to="-25415039#3" lines="taxi"/>
    </person>
    <person id="p114" depart="737">
        <ride from="-25790384" to="-25415039#3" lines="taxi"/>
    </person>
    <person id="p115" depart="738">
        <ride from="28124693#0" to="-25415039#3" lines="taxi"/>
    </person>
    <person id="p116" depart="741">
        <ride from="-674298787#0" to="-25415039#3" lines="taxi"/>
    </person>
    <person id="p117" depart="742">
        <ride from="-193164108#1" to="-25415039#3" lines="taxi"/>
    </person>
    <person id="p118" depart="742">
        <ride from="25790390" to="-25415039#3" lines="taxi"/>
    </person>
    <person id="p119" depart="757">
        <ride from="-25335407#2" to="-25415039#3" lines="taxi"/>
    </person>
    <person id="p120" depart="757">
        <ride from="-25807021#2" to="-25415039#3" lines="taxi"/>
    </person>
    <person id="p121" depart="763">
        <ride from="44642805#0" to="-25415039#3" lines="taxi"/>
    </person>
    <person id="p122" depart="777">
        <ride from="67624333" to="-25415039#3" lines="taxi"/>
    </person>
    <person id="p123" depart="778">
        <ride from="25593376#3" to="-25415039#3" lines="taxi"/>
    </person>
    <person id="p124" depart="783">
        <ride from="-32091203#2" to="-25415039#3" lines="taxi"/>
    </person>
    <person id="p125" depart="783">
        <ride from="25939498#3" to="-25415039#3" lines="taxi"/>
    </person>
    <person id="p126" depart="791">
        <ride from="-37996558#1" to="-25415039#3" lines="taxi"/>
    </person>
    <person id="p127" depart="812">
        <ride from="1021479206#5" to="-25415039#3" lines="taxi"/>
    </person>
    <person id="p128" depart="823">
        <ride from="-742449277#0" to="-25415039#3" lines="taxi"/>
    </person>
    <person id="p129" depart="831">
        <ride from="-28132132#0" to="-25415039#3" lines="taxi"/>
    </person>
    <person id="p130" depart="831">
        <ride from="-25415038#4" to="-25415039#3" lines="taxi"/>
    </person>
    <person id="p131" depart="832">
        <ride from="-25593394#0" to="-25415039#3" lines="taxi"/>
    </person>
    <person id="p132" depart="840">
        <ride from="-1022042157#2" to="-25415039#3" lines="taxi"/>
    </person>
    <person id="p133" depart="856">
        <ride from="-742449277#0" to="-25415039#3" lines="taxi"/>
    </person>
    <person id="p134" depart="858">
        <ride from="25939498#3" to="-25415039#3" lines="taxi"/>
    </person>
    <person id="p135" depart="859">
        <ride from="-25807021#2" to="-25415039#3" lines="taxi"/>
    </person>
    <person id="p136" depart="861">
        <ride from="-25335407#2" to="-25415039#3" lines="taxi"/>
    </person>
    <person id="p137" depart="883">
        <ride from="25593376#3" to="-25415039#3" lines="taxi"/>
    </person>
    <person id="p138" depart="897">
        <ride from="1215949438" to="-25415039#3" lines="taxi"/>
    </person>
    <person id="p139" depart="905">
        <ride from="-122259339#5" to="-25415039#3" lines="taxi"/>
    </person>
    <person id="p140" depart="913">
        <ride from="-193164108#1" to="-25415039#3" lines="taxi"/>
    </person>
    <person id="p141" depart="928">
        <ride from="-661814892" to="-25415039#3" lines="taxi"/>
    </person>
    <person id="p142" depart="932">
        <ride from="-37996558#1" to="-25415039#3" lines="taxi"/>
    </person>
    <person id="p143" depart="937">
        <ride from="1059785584#0" to="-25415039#3" lines="taxi"/>
    </person>
    <person id="p144" depart="940">
        <ride from="1189365209" to="-25415039#3" lines="taxi"/>
    </person>
    <person id="p145" depart="948">
        <ride from="-674298787#0" to="-25415039#3" lines="taxi"/>
    </person>
    <person id="p146" depart="948">
        <ride from="-25593394#0" to="-25415039#3" lines="taxi"/>
    </person>
    <person id="p147" depart="952">
        <ride from="-60702646" to="-25415039#3" lines="taxi"/>
    </person>
    <person id="p148" depart="952">
        <ride from="-37996558#1" to="-25415039#3" lines="taxi"/>
    </person>
    <person id="p149" depart="952">
        <ride from="-75902756#1" to="-25415039#3" lines="taxi"/>
    </person>
    <person id="p150" depart="953">
        <ride from="-25727611#1" to="-25415039#3" lines="taxi"/>
    </person>
    <person id="p151" depart="960">
        <ride from="28725589" to="-25415039#3" lines="taxi"/>
    </person>
    <person id="p152" depart="965">
        <ride from="25790390" to="-25415039#3" lines="taxi"/>
    </person>
    <person id="p153" depart="968">
        <ride from="-742449277#0" to="-25415039#3" lines="taxi"/>
    </person>
    <person id="p154" depart="971">
        <ride from="-193164108#1" to="-25415039#3" lines="taxi"/>
    </person>
    <person id="p155" depart="976">
        <ride from="-253010733#1" to="-25415039#3" lines="taxi"/>
    </person>
    <person id="p156" depart="985">
        <ride from="37996159#1" to="-25415039#3" lines="taxi"/>
    </person>
    <person id="p157" depart="987">
        <ride from="1189365209" to="-25415039#3" lines="taxi"/>
    </person>
    <person id="p158" depart="989">
        <ride from="28140027#0" to="-25415039#3" lines="taxi"/>
    </person>
    <person id="p159" depart="993">
        <ride from="-25727611#1" to="-25415039#3" lines="taxi"/>
    </person>
    <person id="p160" depart="995">
        <ride from="25593376#3" to="-25415039#3" lines="taxi"/>
    </person>
    <person id="p161" depart="996">
        <ride from="44642805#0" to="-25415039#3" lines="taxi"/>
    </person>
    <person id="p162" depart="1020">
        <ride from="-38128295#0" to="-25415039#3" lines="taxi"/>
    </person>
    <person id="p163" depart="1024">
        <ride from="25593376#3" to="-25415039#3" lines="taxi"/>
    </person>
    <person id="p164" depart="1031">
        <ride from="44642805#0" to="-25415039#3" lines="taxi"/>
    </person>
    <person id="p165" depart="1035">
        <ride from="-238136477" to="-25415039#3" lines="taxi"/>
    </person>
    <person id="p166" depart="1036">
        <ride from="-38128295#0" to="-25415039#3" lines="taxi"/>
    </person>
    <person id="p167" depart="1045">
        <ride from="67624333" to="-25415039#3" lines="taxi"/>
    </person>
    <person id="p168" depart="1056">
        <ride from="-75902756#1" to="-25415039#3" lines="taxi"/>
    </person>
    <person id="p169" depart="1065">
        <ride from="1215949438" to="-25415039#3" lines="taxi"/>
    </person>
    <person id="p170" depart="1067">
        <ride from="-25790384" to="-25415039#3" lines="taxi"/>
    </person>
    <person id="p171" depart="1071">
        <ride from="238136480#1" to="-25415039#3" lines="taxi"/>
    </person>
    <person id="p172" depart="1072">
        <ride from="-18784601#1" to="-25415039#3" lines="taxi"/>
    </person>
    <person id="p173" depart="1075">
        <ride from="-25335407#2" to="-25415039#3" lines="taxi"/>
    </person>
    <person id="p174" depart="1076">
        <ride from="67624333" to="-25415039#3" lines="taxi"/>
    </person>
    <person id="p175" depart="1083">
        <ride from="-28004236" to="-25415039#3" lines="taxi"/>
    </person>
    <person id="p176" depart="1091">
        <ride from="238136480#1" to="-25415039#3" lines="taxi"/>
    </person>
    <person id="p177" depart="1099">
        <ride from="-1022042157#2" to="-25415039#3" lines="taxi"/>
    </person>
    <person id="p178" depart="1101">
        <ride from="-238136477" to="-25415039#3" lines="taxi"/>
    </person>
    <person id="p179" depart="1101">
        <ride from="238136480#1" to="-25415039#3" lines="taxi"/>
    </person>
    <person id="p180" depart="1103">
        <ride from="28124696#0" to="-25415039#3" lines="taxi"/>
    </person>
    <person id="p181" depart="1106">
        <ride from="-661814892" to="-25415039#3" lines="taxi"/>
    </person>
    <person id="p182" depart="1108">
        <ride from="25790390" to="-25415039#3" lines="taxi"/>
    </person>
    <person id="p183" depart="1115">
        <ride from="-252947536#1" to="-25415039#3" lines="taxi"/>
    </person>
    <person id="p184" depart="1120">
        <ride from="28727437#1" to="-25415039#3" lines="taxi"/>
    </person>
    <person id="p185" depart="1132">
        <ride from="-742449277#0" to="-25415039#3" lines="taxi"/>
    </person>
    <person id="p186" depart="1134">
        <ride from="24996585#0" to="-25415039#3" lines="taxi"/>
    </person>
    <person id="p187" depart="1141">
        <ride from="289937319" to="-25415039#3" lines="taxi"/>
    </person>
    <person id="p188" depart="1155">
        <ride from="-252947536#1" to="-25415039#3" lines="taxi"/>
    </person>
    <person id="p189" depart="1159">
        <ride from="44443593#2" to="-25415039#3" lines="taxi"/>
    </person>
    <person id="p190" depart="1162">
        <ride from="1189365209" to="-25415039#3" lines="taxi"/>
    </person>
    <person id="p191" depart="1189">
        <ride from="-193164108#1" to="-25415039#3" lines="taxi"/>
    </person>
    <person id="p192" depart="1193">
        <ride from="-25790384" to="-25415039#3" lines="taxi"/>
    </person>
    <person id="p193" depart="1195">
        <ride from="238136480#1" to="-25415039#3" lines="taxi"/>
    </person>
    <person id="p194" depart="1195">
        <ride from="289937319" to="-25415039#3" lines="taxi"/>
    </person>
    <person id="p195" depart="1197">
        <ride from="1215949438" to="-25415039#3" lines="taxi"/>
    </person>
    <person id="p196" depart="1197">
        <ride from="-25790384" to="-25415039#3" lines="taxi"/>
    </person>
    <person id="p197" depart="1199">
        <ride from="-253010733#1" to="-25415039#3" lines="taxi"/>
    </person>
    <person id="p198" depart="1207">
        <ride from="-674298787#0" to="-25415039#3" lines="taxi"/>
    </person>
    <person id="p199" depart="1233">
        <ride from="25593376#3" to="-25415039#3" lines="taxi"/>
    </person>
    <person id="p200" depart="1253">
        <ride from="37996159#1" to="-25415039#3" lines="taxi"/>
    </person>
    <person id="p201" depart="1254">
        <ride from="-25593394#0" to="-25415039#3" lines="taxi"/>
    </person>
    <person id="p202" depart="1254">
        <ride from="289937319" to="-25415039#3" lines="taxi"/>
    </person>
    <person id="p203" depart="1275">
        <ride from="-28132131" to="-25415039#3" lines="taxi"/>
    </person>
    <person id="p204" depart="1291">
        <ride from="28140027#0" to="-25415039#3" lines="taxi"/>
    </person>
    <person id="p205" depart="1294">
        <ride from="26668849#2" to="-25415039#3" lines="taxi"/>
    </person>
    <person id="p206" depart="1295">
        <ride from="-25790384" to="-25415039#3" lines="taxi"/>
    </person>
    <person id="p207" depart="1298">
        <ride from="28727437#1" to="-25415039#3" lines="taxi"/>
    </person>
    <person id="p208" depart="1298">
        <ride from="-252947536#1" to="-25415039#3" lines="taxi"/>
    </person>
    <person id="p209" depart="1300">
        <ride from="44443593#2" to="-25415039#3" lines="taxi"/>
    </person>
    <person id="p210" depart="1306">
        <ride from="-25593394#0" to="-25415039#3" lines="taxi"/>
    </person>
    <person id="p211" depart="1313">
        <ride from="-28132132#0" to="-25415039#3" lines="taxi"/>
    </person>
    <person id="p212" depart="1325">
        <ride from="-25335407#2" to="-25415039#3" lines="taxi"/>
    </person>
    <person id="p213" depart="1328">
        <ride from="28124693#0" to="-25415039#3" lines="taxi"/>
    </person>
    <person id="p214" depart="1338">
        <ride from="-32091203#2" to="-25415039#3" lines="taxi"/>
    </person>
    <person id="p215" depart="1343">
        <ride from="28140027#0" to="-25415039#3" lines="taxi"/>
    </person>
    <person id="p216" depart="1353">
        <ride from="-253010733#1" to="-25415039#3" lines="taxi"/>
    </person>
    <person id="p217" depart="1354">
        <ride from="-25727611#1" to="-25415039#3" lines="taxi"/>
    </person>
    <person id="p218" depart="1363">
        <ride from="26668849#2" to="-25415039#3" lines="taxi"/>
    </person>
    <person id="p219" depart="1369">
        <ride from="-25335407#2" to="-25415039#3" lines="taxi"/>
    </person>
    <person id="p220" depart="1374">
        <ride from="44443593#2" to="-25415039#3" lines="taxi"/>
    </person>
    <person id="p221" depart="1380">
        <ride from="25790390" to="-25415039#3" lines="taxi"/>
    </person>
    <person id="p222" depart="1391">
        <ride from="-238136477" to="-25415039#3" lines="taxi"/>
    </person>
    <person id="p223" depart="1397">
        <ride from="28727437#1" to="-25415039#3" lines="taxi"/>
    </person>
    <person id="p224" depart="1401">
        <ride from="-38128295#0" to="-25415039#3" lines="taxi"/>
    </person>
    <person id="p225" depart="1403">
        <ride from="1361425836#1" to="-25415039#3" lines="taxi"/>
    </person>
    <person id="p226" depart="1405">
        <ride from="-28132132#0" to="-25415039#3" lines="taxi"/>
    </person>
    <person id="p227" depart="1407">
        <ride from="37996159#1" to="-25415039#3" lines="taxi"/>
    </person>
    <person id="p228" depart="1413">
        <ride from="-28132131" to="-25415039#3" lines="taxi"/>
    </person>
    <person id="p229" depart="1419">
        <ride from="-18784601#1" to="-25415039#3" lines="taxi"/>
    </person>
    <person id="p230" depart="1431">
        <ride from="1021479206#5" to="-25415039#3" lines="taxi"/>
    </person>
    <person id="p231" depart="1438">
        <ride from="-238136477" to="-25415039#3" lines="taxi"/>
    </person>
    <person id="p232" depart="1438">
        <ride from="28124693#0" to="-25415039#3" lines="taxi"/>
    </person>
    <person id="p233" depart="1439">
        <ride from="-25727611#1" to="-25415039#3" lines="taxi"/>
    </person>
    <person id="p234" depart="1440">
        <ride from="-1022042157#2" to="-25415039#3" lines="taxi"/>
    </person>
    <person id="p235" depart="1442">
        <ride from="-28132131" to="-25415039#3" lines="taxi"/>
    </person>
    <person id="p236" depart="1459">
        <ride from="44443593#2" to="-25415039#3" lines="taxi"/>
    </person>
    <person id="p237" depart="1477">
        <ride from="-25335407#2" to="-25415039#3" lines="taxi"/>
    </person>
    <person id="p238" depart="1479">
        <ride from="-28132132#0" to="-25415039#3" lines="taxi"/>
    </person>
    <person id="p239" depart="1498">
        <ride from="25593376#3" to="-25415039#3" lines="taxi"/>
    </person>
    <person id="p240" depart="1511">
        <ride from="1361425836#1" to="-25415039#3" lines="taxi"/>
    </person>
    <person id="p241" depart="1514">
        <ride from="-193164108#1" to="-25415039#3" lines="taxi"/>
    </person>
    <person id="p242" depart="1520">
        <ride from="-60702646" to="-25415039#3" lines="taxi"/>
    </person>
    <person id="p243" depart="1530">
        <ride from="28124696#0" to="-25415039#3" lines="taxi"/>
    </person>
    <person id="p244" depart="1534">
        <ride from="1021479206#5" to="-25415039#3" lines="taxi"/>
    </person>
    <person id="p245" depart="1546">
        <ride from="1189365209" to="-25415039#3" lines="taxi"/>
    </person>
    <person id="p246" depart="1549">
        <ride from="-238136477" to="-25415039#3" lines="taxi"/>
    </person>
    <person id="p247" depart="1552">
        <ride from="-25790384" to="-25415039#3" lines="taxi"/>
    </person>
    <person id="p248" depart="1553">
        <ride from="28725589" to="-25415039#3" lines="taxi"/>
    </person>
    <person id="p249" depart="1555">
        <ride from="-25415038#4" to="-25415039#3" lines="taxi"/>
    </person>
    <person id="p250" depart="1582">
        <ride from="28725589" to="-25415039#3" lines="taxi"/>
    </person>
    <person id="p251" depart="1591">
        <ride from="44642805#0" to="-25415039#3" lines="taxi"/>
    </person>
    <person id="p252" depart="1604">
        <ride from="-742449277#0" to="-25415039#3" lines="taxi"/>
    </person>
    <person id="p253" depart="1606">
        <ride from="-674298787#0" to="-25415039#3" lines="taxi"/>
    </person>
    <person id="p254" depart="1629">
        <ride from="1021479206#5" to="-25415039#3" lines="taxi"/>
    </person>
    <person id="p255" depart="1637">
        <ride from="-193164108#1" to="-25415039#3" lines="taxi"/>
    </person>
    <person id="p256" depart="1640">
        <ride from="1215949438" to="-25415039#3" lines="taxi"/>
    </person>
    <person id="p257" depart="1641">
        <ride from="-25415038#4" to="-25415039#3" lines="taxi"/>
    </person>
    <person id="p258" depart="1641">
        <ride from="-28132131" to="-25415039#3" lines="taxi"/>
    </person>
    <person id="p259" depart="1654">
        <ride from="-60702646" to="-25415039#3" lines="taxi"/>
    </person>
    <person id="p260" depart="1660">
        <ride from="-28132132#0" to="-25415039#3" lines="taxi"/>
    </person>
    <person id="p261" depart="1665">
        <ride from="-32091203#2" to="-25415039#3" lines="taxi"/>
    </person>
    <person id="p262" depart="1670">