<?xml version="1.0" ?>
<!-- Generated by MOSAIC scenario-convert 25.0 -->
<routes>
    <vType id="TaxiSumo" vClass="taxi" personCapacity="4" maxSpeed="50">
        <param key="has.taxi.device" value="true"/>
        <param key="device.taxi.pickUpDuration" value="20"/>
        <param key="device.taxi.dropOffDuration" value="60"/>
    </vType>
    <vType id="TrainSumo" vClass="rail" carFollowModel="Rail" length="50"/>

<!-- VEHICLES -->
    <vehicle id="t1" type="TaxiSumo" depart="0" departPos="free" line="taxi">
        <route edges="-75902756#1"/>
    </vehicle>
    <vehicle id="t2" type="TaxiSumo" depart="0" departPos="free" line="taxi">
        <route edges="28124696#0"/>
    </vehicle>
    <vehicle id="t3" type="TaxiSumo" depart="0" departPos="free" line="taxi">
        <route edges="-60702646"/>
    </vehicle>
    <vehicle id="t4" type="TaxiSumo" depart="0" departPos="free" line="taxi">
        <route edges="-661814892"/>
    </vehicle>
    <vehicle id="t5" type="TaxiSumo" depart="0" departPos="free" line="taxi">
        <route edges="1215949438"/>
    </vehicle>
    <vehicle id="t6" type="TaxiSumo" depart="0" departPos="free" line="taxi">
        <route edges="28140027#0"/>
    </vehicle>
    <vehicle id="t7" type="TaxiSumo" depart="0" departPos="free" line="taxi">
        <route edges="25790390"/>
    </vehicle>
    <vehicle id="t8" type="TaxiSumo" depart="0" departPos="free" line="taxi">
        <route edges="-25807021#2"/>
    </vehicle>
    <vehicle id="t9" type="TaxiSumo" depart="0" departPos="free" line="taxi">
        <route edges="1059785584#0"/>
    </vehicle>
    <vehicle id="t10" type="TaxiSumo" depart="0" departPos="free" line="taxi">
        <route edges="-37996558#1"/>
    </vehicle>
    <vehicle id="t11" type="TaxiSumo" depart="0" departPos="free" line="taxi">
        <route edges="25939498#3"/>
    </vehicle>
    <vehicle id="t12" type="TaxiSumo" depart="0" departPos="free" line="taxi">
        <route edges="1189365209"/>
    </vehicle>
    <vehicle id="t13" type="TaxiSumo" depart="0" departPos="free" line="taxi">
        <route edges="-742449277#0"/>
    </vehicle>
    <vehicle id="t14" type="TaxiSumo" depart="0" departPos="free" line="taxi">
        <route edges="-25593394#0"/>
    </vehicle>
    <vehicle id="t15" type="TaxiSumo" depart="0" departPos="free" line="taxi">
        <route edges="28725589"/>
    </vehicle>
    <vehicle id="t16" type="TaxiSumo" depart="0" departPos="free" line="taxi">
        <route edges="238136480#1"/>
    </vehicle>
    <vehicle id="t17" type="TaxiSumo" depart="0" departPos="free" line="taxi">
        <route edges="44642805#0"/>
    </vehicle>
    <vehicle id="t18" type="TaxiSumo" depart="0" departPos="free" line="taxi">
        <route edges="132619396#0"/>
    </vehicle>
    <vehicle id="t19" type="TaxiSumo" depart="0" departPos="free" line="taxi">
        <route edges="103093870#1"/>
    </vehicle>
    <vehicle id="t20" type="TaxiSumo" depart="0" departPos="free" line="taxi">
        <route edges="1361425836#1"/>
    </vehicle>
    <vehicle id="t21" type="TaxiSumo" depart="0" departPos="free" line="taxi">
        <route edges="28124693#0"/>
    </vehicle>
    <vehicle id="t22" type="TaxiSumo" depart="0" departPos="free" line="taxi">
        <route edges="268504689#2"/>
    </vehicle>
    <vehicle id="t23" type="TaxiSumo" depart="0" departPos="free" line="taxi">
        <route edges="-25790384"/>
    </vehicle>
    <vehicle id="t24" type="TaxiSumo" depart="0" departPos="free" line="taxi">
        <route edges="26668849#2"/>
    </vehicle>
    <vehicle id="t25" type="TaxiSumo" depart="0" departPos="free" line="taxi">
        <route edges="1021479206#5"/>
    </vehicle>
    <vehicle id="t26" type="TaxiSumo" depart="0" departPos="free" line="taxi">
        <route edges="25593376#3"/>
    </vehicle>
    <vehicle id="t27" type="TaxiSumo" depart="0" departPos="free" line="taxi">
        <route edges="24996585#0"/>
    </vehicle>
    <vehicle id="t28" type="TaxiSumo" depart="0" departPos="free" line="taxi">
        <route edges="-25415039#3"/>
    </vehicle>
    <vehicle id="t29" type="TaxiSumo" depart="0" departPos="free" line="taxi">
        <route edges="-252947536#1"/>
    </vehicle>
    <vehicle id="t30" type="TaxiSumo" depart="0" departPos="free" line="taxi">
        <route edges="-238136477"/>
    </vehicle>

    <flow id="train1" type="TrainSumo" line="trainLine" begin="500" end="3500" period="500">
        <route edges="374359231 374605592#0"/>
        <stop trainStop="ts_1" duration="60"/>
    </flow>
</routes>
