<connections>
	<connection from="-24996482" to="-1146511183" />
	<connection from="-24996482" to="24996482" />
	<connection from="-24996482" to="766456700" />
	<connection from="917125807#1" to="-102133508#1" />
	<connection from="917125807#1" to="102133508#2" />
	<connection from="917125807#1" to="-917125807#1" />
	<connection from="238136479" to="664931625" />
	<connection from="238136477" to="1361423525" />
	<connection from="238136477" to="891254816" />
	<connection from="238136477" to="-238136477" />
	<connection from="388045486" to="-1206494769#6" />
	<connection from="917125807#0" to="917125807#1" />
	<connection from="917125807#0" to="-917125807#0" />
	<connection from="917125807#0" to="917125806" />
	<connection from="-130075988#0" to="130075988#0" />
	<connection from="388045484" to="674298789" />
	<connection from="-130075988#1" to="-32530770#7" />
	<connection from="-130075988#1" to="32530770#8" />
	<connection from="-130075988#1" to="-130075988#0" />
	<connection from="-130075988#1" to="130075988#1" />
	<connection from="-130075988#2" to="-130075982#1" />
	<connection from="-130075988#2" to="130075988#2" />
	<connection from="-130075988#2" to="130075982#2" />
	<connection from="-130075988#2" to="-130075988#1" />
	<connection from="1126674469" to="266298778" />
	<connection from="205504732#1" to="-209736758#2" />
	<connection from="205504732#1" to="209736758#3" />
	<connection from="205504732#1" to="-205504732#1" />
	<connection from="205504732#0" to="742448554" />
	<connection from="205504732#0" to="205504732#1" />
	<connection from="205504732#0" to="-205504732#0" />
	<connection from="-812750480" to="667591279#1" />
	<connection from="-812750480" to="812750480" />
	<connection from="-812750480" to="-667591279#0" />
	<connection from="28989139" to="58725719" />
	<connection from="238136486" to="667591279#0" />
	<connection from="238136486" to="25593376#0" />
	<connection from="238136486" to="25727616#0" />
	<connection from="238136486" to="-238136486" />
	<connection from="238136483" to="1144037704#0" />
	<connection from="1253188971" to="90973540" />
	<connection from="1253188971" to="-1253188971" />
	<connection from="-293012660" to="-124898492" />
	<connection from="24675313" to="24996585#0" />
	<connection from="25727612#2" to="803544128" />
	<connection from="25727612#2" to="25727612#3" />
	<connection from="25727612#1" to="-803544127" />
	<connection from="25727612#1" to="25727612#2" />
	<connection from="25727612#4" to="-25727612#4" />
	<connection from="25727612#4" to="-25593396#0" />
	<connection from="25727612#4" to="25593396#1" />
	<connection from="25727612#3" to="-911086306" />
	<connection from="25727612#3" to="25727612#4" />
	<connection from="-126386205" to="126386205" />
	<connection from="-126386205" to="-1196825265#1" />
	<connection from="-126386205" to="-60168684#2" />
	<connection from="25727612#0" to="-25727612#0" />
	<connection from="25727612#0" to="-25727613#2" />
	<connection from="25727612#0" to="25727612#1" />
	<connection from="25727612#0" to="25727613#3" />
	<connection from="-25939498#10" to="-25939498#9" />
	<connection from="529492808" to="-529492808" />
	<connection from="809308678#0" to="-809308678#0" />
	<connection from="809308678#0" to="-507997227#5" />
	<connection from="809308678#0" to="507997227#6" />
	<connection from="809308678#0" to="809308678#1" />
	<connection from="809308678#1" to="-809308678#1" />
	<connection from="809308678#1" to="-507997229" />
	<connection from="809308678#1" to="809308678#2" />
	<connection from="681778294" to="-681778396" />
	<connection from="809308678#2" to="-35399468" />
	<connection from="1215085208#1" to="27671168#0" />
	<connection from="-428587287" to="-532075103" />
	<connection from="-428587287" to="205481762" />
	<connection from="-428587287" to="428587287" />
	<connection from="-428587286" to="25593276" />
	<connection from="-428587286" to="-28124694" />
	<connection from="-127729891#0" to="-202269621#0" />
	<connection from="-127729891#0" to="127729891#0" />
	<connection from="-127729891#0" to="202269621#1" />
	<connection from="-127729891#1" to="-127729891#0" />
	<connection from="-127729891#1" to="127729891#1" />
	<connection from="-127729891#1" to="-60702639#4" />
	<connection from="-127729891#1" to="60702639#5" />
	<connection from="-127729891#2" to="-127729891#1" />
	<connection from="-127729891#2" to="-60702642#1" />
	<connection from="-127729891#2" to="127729891#2" />
	<connection from="-127729891#2" to="-60702620" />
	<connection from="-127729891#3" to="-127729891#2" />
	<connection from="-127729891#3" to="127729891#3" />
	<connection from="-127729891#3" to="-202270388#0" />
	<connection from="-127729891#3" to="202270388#1" />
	<connection from="-25727612#1" to="-25727612#0" />
	<connection from="-25727612#1" to="-25727613#2" />
	<connection from="-25727612#1" to="25727612#1" />
	<connection from="-25727612#1" to="25727613#3" />
	<connection from="-25727612#0" to="667591279#2" />
	<connection from="-25727612#0" to="25727614#0" />
	<connection from="-25727612#0" to="-667591279#1" />
	<connection from="-25727612#0" to="25727612#0" />
	<connection from="-25727612#3" to="-25727612#2" />
	<connection from="-25727612#3" to="803544128" />
	<connection from="-25727612#2" to="-25727612#1" />
	<connection from="-25727612#2" to="-803544127" />
	<connection from="-44642779#0" to="-44642782" />
	<connection from="-44642779#0" to="44642779#0" />
	<connection from="-696747392" to="696747392" />
	<connection from="-696747392" to="1146511175#7" />
	<connection from="-696747392" to="-60702617#2" />
	<connection from="-696747392" to="-1146511175#6" />
	<connection from="-25727612#4" to="-911086306" />
	<connection from="-25727612#4" to="-25727612#3" />
	<connection from="-1253188971" to="-24996581#1" />
	<connection from="-132688420" to="-458352797" />
	<connection from="512401065#0" to="-512401065#0" />
	<connection from="512401065#0" to="512401065#1" />
	<connection from="512401065#0" to="-512401068" />
	<connection from="512401065#1" to="-512401065#1" />
	<connection from="512401065#1" to="-104973447#0" />
	<connection from="512401065#1" to="104973447#1" />
	<connection from="-135061898#0" to="135061898#0" />
	<connection from="26316488#0" to="-26316488#0" />
	<connection from="26316488#0" to="26316488#1" />
	<connection from="26316488#0" to="26316489" />
	<connection from="26316488#1" to="742444063" />
	<connection from="26316488#1" to="-26316488#1" />
	<connection from="1059785584#1" to="-1059785584#1" />
	<connection from="25790385#0" to="25790385#1" />
	<connection from="25790385#0" to="824111206" />
	<connection from="1059785584#0" to="-1059785584#0" />
	<connection from="1059785584#0" to="1059785584#1" />
	<connection from="1059785584#0" to="-1106768312" />
	<connection from="25790385#1" to="682167022#0" />
	<connection from="25790385#1" to="25790385#2" />
	<connection from="25790385#2" to="-25790385#2" />
	<connection from="25790385#2" to="25790386#0" />
	<connection from="681778229" to="-681778229" />
	<connection from="681778229" to="26317663#1" />
	<connection from="681778229" to="-26317663#0" />
	<connection from="-824154637" to="25593396#3" />
	<connection from="-824154637" to="824154637" />
	<connection from="-824154637" to="-25593396#2" />
	<connection from="687051088" to="-687051088" />
	<connection from="682256322" to="25593376#2" />
	<connection from="682256322" to="-25593376#0" />
	<connection from="682256322" to="-682256322" />
	<connection from="682256322" to="25727620#0" />
	<connection from="237453004" to="674298798#4" />
	<connection from="237453004" to="-237453004" />
	<connection from="237453004" to="-674298798#3" />
	<connection from="-686870955" to="686870955" />
	<connection from="237453003" to="-237453003" />
	<connection from="237453003" to="1211948282#0" />
	<connection from="44642779#0" to="670263063" />
	<connection from="44642779#0" to="-44642779#0" />
	<connection from="44642779#0" to="44642783" />
	<connection from="44642779#0" to="44642779#1" />
	<connection from="44642779#1" to="205498493#1" />
	<connection from="44642779#1" to="-44642779#1" />
	<connection from="891258591#0" to="891258591#1" />
	<connection from="891258591#0" to="-891258591#0" />
	<connection from="891258591#0" to="-670262613" />
	<connection from="-669092713" to="669092713" />
	<connection from="891258591#1" to="58725674#0" />
	<connection from="891258591#1" to="-416930329" />
	<connection from="891258591#1" to="-891258591#1" />
	<connection from="891258591#1" to="670262709#0" />
	<connection from="-25953580#12" to="-25953580#10" />
	<connection from="-25953580#12" to="-125195968" />
	<connection from="-25953580#12" to="238451160#0" />
	<connection from="-25953580#12" to="25953580#12" />
	<connection from="-25953580#10" to="-25953580#9" />
	<connection from="-25953580#10" to="-899735466#1" />
	<connection from="-44642779#1" to="670263063" />
	<connection from="-44642779#1" to="-44642779#0" />
	<connection from="-44642779#1" to="44642783" />
	<connection from="-44642779#1" to="44642779#1" />
	<connection from="-1408683774" to="1408683774" />
	<connection from="-1408683774" to="28132656" />
	<connection from="-1408683774" to="-232585186#2" />
	<connection from="-28004226#1" to="-135061898#1" />
	<connection from="-28004226#1" to="135061898#2" />
	<connection from="-28004226#1" to="-28004226#0" />
	<connection from="-28004226#1" to="28004226#1" />
	<connection from="-28004226#0" to="-27671170#3" />
	<connection from="-28004226#0" to="-27671168#5" />
	<connection from="-28004226#0" to="28004226#0" />
	<connection from="-28004226#0" to="28004227#0" />
	<connection from="-28004226#2" to="-28004226#1" />
	<connection from="-28004226#2" to="-293012659#1" />
	<connection from="-28004226#2" to="28004226#2" />
	<connection from="1324729835" to="664919543#0" />
	<connection from="1324728507" to="532075104#0" />
	<connection from="-28747052#0" to="-28747052#3" />
	<connection from="-28747052#1" to="-28747052#0" />
	<connection from="-28747052#1" to="28747055" />
	<connection from="-28747052#1" to="28747052#1" />
	<connection from="-28747052#2" to="-28747052#1" />
	<connection from="-28747052#2" to="28747052#2" />
	<connection from="-28747052#2" to="28747134" />
	<connection from="-28747052#3" to="-28747052#2" />
	<connection from="-28747052#3" to="28747052#3" />
	<connection from="-28747052#3" to="-28747054#1" />
	<connection from="-90973540" to="90973540" />
	<connection from="-90973540" to="-1253188971" />
	<connection from="-90973542" to="-532075100#1" />
	<connection from="-90973542" to="90973542" />
	<connection from="-90973542" to="-28124691" />
	<connection from="-28747134" to="-28747052#1" />
	<connection from="-28747134" to="28747052#2" />
	<connection from="-28747134" to="28747134" />
	<connection from="130075986#2" to="-60702626#2" />
	<connection from="130075986#2" to="-60702622" />
	<connection from="130075986#2" to="-130075986#2" />
	<connection from="28004226#0" to="-135061898#1" />
	<connection from="28004226#0" to="135061898#2" />
	<connection from="28004226#0" to="-28004226#0" />
	<connection from="28004226#0" to="28004226#1" />
	<connection from="130075986#0" to="-130075986#0" />
	<connection from="130075986#0" to="60702623" />
	<connection from="130075986#0" to="130075986#1" />
	<connection from="28004226#1" to="-28004226#1" />
	<connection from="28004226#1" to="-293012659#1" />
	<connection from="28004226#1" to="28004226#2" />
	<connection from="130075986#1" to="60702626#0" />
	<connection from="130075986#1" to="130075986#2" />
	<connection from="130075986#1" to="-130075986#1" />
	<connection from="28004226#2" to="32598302#6" />
	<connection from="28004226#2" to="-32598302#5" />
	<connection from="28004226#2" to="-28004226#2" />
	<connection from="-35399468" to="35399467#1" />
	<connection from="-35399468" to="-35399467#0" />
	<connection from="-35399468" to="35399468" />
	<connection from="239886536" to="60702610#1" />
	<connection from="239886536" to="-60702610#0" />
	<connection from="239886536" to="-239886536" />
	<connection from="480278676#1" to="-480278676#1" />
	<connection from="480278676#0" to="480278676#1" />
	<connection from="480278676#0" to="37996558#1" />
	<connection from="480278676#0" to="-37996558#0" />
	<connection from="480278676#0" to="-480278676#0" />
	<connection from="100946878" to="-100946878" />
	<connection from="100946878" to="32068448#1" />
	<connection from="100946878" to="-32068448#0" />
	<connection from="-135061898#2" to="-135061898#1" />
	<connection from="-135061898#2" to="135061898#2" />
	<connection from="-135061898#2" to="-28004226#0" />
	<connection from="-135061898#2" to="28004226#1" />
	<connection from="-135061898#1" to="135061898#1" />
	<connection from="-135061898#1" to="135061899" />
	<connection from="-135061898#1" to="-135061898#0" />
	<connection from="1281226717#1" to="1281226717#2" />
	<connection from="1281226717#1" to="1257121657" />
	<connection from="1281226717#1" to="-1281226717#1" />
	<connection from="1281226717#0" to="-1103009713#1" />
	<connection from="1281226717#0" to="1281226717#1" />
	<connection from="1281226717#0" to="-1281226717#0" />
	<connection from="667591282#2" to="-686870955" />
	<connection from="667591282#2" to="-686870957#1" />
	<connection from="667591282#2" to="-667591282#2" />
	<connection from="667591282#2" to="132619396#0" />
	<connection from="667591282#2" to="-60030730#1" />
	<connection from="667591282#1" to="-60030726#1" />
	<connection from="667591282#1" to="-667591282#1" />
	<connection from="667591282#1" to="667591282#2" />
	<connection from="1281226717#2" to="-1021479205#0" />
	<connection from="1281226717#2" to="-1281226717#2" />
	<connection from="1281226717#2" to="1021479205#1" />
	<connection from="28747052#2" to="-28747052#2" />
	<connection from="28747052#2" to="28747052#3" />
	<connection from="28747052#2" to="-28747054#1" />
	<connection from="28747052#3" to="28747052#0" />
	<connection from="1365303275#1" to="1022042161#0" />
	<connection from="1365303275#1" to="1365303275#2" />
	<connection from="1365303275#1" to="-1365303275#1" />
	<connection from="1365303275#0" to="1365303275#1" />
	<connection from="1365303275#0" to="-1365303275#0" />
	<connection from="1365303275#0" to="-1022042160#1" />
	<connection from="28747052#0" to="-28747052#0" />
	<connection from="28747052#0" to="28747055" />
	<connection from="28747052#0" to="28747052#1" />
	<connection from="1365303275#2" to="-1365303275#2" />
	<connection from="28747052#1" to="-28747052#1" />
	<connection from="28747052#1" to="28747052#2" />
	<connection from="28747052#1" to="28747134" />
	<connection from="891254822#0" to="-891254822#0" />
	<connection from="891254822#0" to="-44642783" />
	<connection from="891254822#0" to="891254822#1" />
	<connection from="891254822#1" to="221757356#0" />
	<connection from="891254822#1" to="44642804" />
	<connection from="891254822#1" to="-891254822#1" />
	<connection from="-667591285#1" to="667591286#1" />
	<connection from="-667591285#1" to="186545678#1" />
	<connection from="-667591285#1" to="-186545678#0" />
	<connection from="-667591285#1" to="-667591285#0" />
	<connection from="-667591285#1" to="667591285#1" />
	<connection from="-667591285#0" to="667591285#0" />
	<connection from="1211948281" to="-1211948282#0" />
	<connection from="1211948281" to="-1211948281" />
	<connection from="1211948281" to="1211948282#1" />
	<connection from="-75902782#1" to="75902782#1" />
	<connection from="-75902782#1" to="75902766" />
	<connection from="-75902782#1" to="-75902782#0" />
	<connection from="-664919619" to="-664919620#0" />
	<connection from="-664919619" to="664919619" />
	<connection from="-664919619" to="664919620#1" />
	<connection from="-75902782#0" to="-75902768#0" />
	<connection from="-75902782#0" to="75902782#0" />
	<connection from="-75902782#0" to="75902768#1" />
	<connection from="-75902782#2" to="75902782#2" />
	<connection from="-75902782#2" to="75902735" />
	<connection from="-75902782#2" to="-75902782#1" />
	<connection from="936226022" to="-268504689#4" />
	<connection from="936226022" to="-936226022" />
	<connection from="936226022" to="268504689#5" />
	<connection from="-239893520#0" to="239893520#0" />
	<connection from="664919543#1" to="-664919543#1" />
	<connection from="664919543#1" to="-664919540" />
	<connection from="664919543#0" to="664919542" />
	<connection from="664919543#0" to="664919543#1" />
	<connection from="664919543#0" to="-664919543#0" />
	<connection from="-239893520#2" to="239893517#0" />
	<connection from="-239893520#2" to="-239893520#1" />
	<connection from="-239893520#2" to="239893520#2" />
	<connection from="-239893520#1" to="239893520#1" />
	<connection from="-239893520#1" to="-239893520#0" />
	<connection from="-239893520#1" to="239893514#1" />
	<connection from="-239893520#1" to="-239893514#0" />
	<connection from="75902782#2" to="-122259339#2" />
	<connection from="75902782#2" to="-75902782#2" />
	<connection from="75902782#2" to="122259339#3" />
	<connection from="75902782#1" to="75902782#2" />
	<connection from="75902782#1" to="75902735" />
	<connection from="75902782#1" to="-75902782#1" />
	<connection from="75902782#0" to="75902782#1" />
	<connection from="75902782#0" to="75902766" />
	<connection from="75902782#0" to="-75902782#0" />
	<connection from="100946833" to="-100946833" />
	<connection from="100946833" to="32598302#4" />
	<connection from="100946833" to="-32598302#3" />
	<connection from="118353597" to="-118353597" />
	<connection from="374860427" to="-374860427" />
	<connection from="-1126674469" to="-317706253" />
	<connection from="513643432#1" to="188037849" />
	<connection from="513643432#0" to="513643432#1" />
	<connection from="513643432#0" to="513643414#0" />
	<connection from="32091203#2" to="532075110" />
	<connection from="32091203#2" to="-32091203#2" />
	<connection from="32091203#2" to="-771299324#6" />
	<connection from="32091203#1" to="32091203#2" />
	<connection from="32091203#1" to="458352798" />
	<connection from="32091203#0" to="32091203#1" />
	<connection from="32091203#0" to="-458352796#1" />
	<connection from="-37996558#0" to="-576052481#1" />
	<connection from="-37996558#0" to="26668849#1" />
	<connection from="-37996558#0" to="37996558#0" />
	<connection from="-37996558#0" to="-1188479674#1" />
	<connection from="-37996558#1" to="480278676#1" />
	<connection from="-37996558#1" to="-37996558#0" />
	<connection from="-37996558#1" to="-480278676#0" />
	<connection from="-37996558#2" to="37996558#2" />
	<connection from="-37996558#2" to="-37996558#1" />
	<connection from="-37996558#2" to="30923082#0" />
	<connection from="-37996558#3" to="-37996558#2" />
	<connection from="-37996558#3" to="-838144254" />
	<connection from="-37996558#4" to="911211170" />
	<connection from="-37996558#4" to="-37996558#3" />
	<connection from="-28727430#1" to="-28727430#0" />
	<connection from="-28727430#1" to="780109185" />
	<connection from="-28727430#0" to="25953581#4" />
	<connection from="-28727430#0" to="-25953581#3" />
	<connection from="-28727430#0" to="28727430#0" />
	<connection from="-1146511183" to="25593595#0" />
	<connection from="-1146511183" to="1146511183" />
	<connection from="-1146511183" to="-667591268#7" />
	<connection from="-1146511183" to="-25593396#3" />
	<connection from="-1146511181" to="1146511181" />
	<connection from="664750439" to="32091203#0" />
	<connection from="664750439" to="-32068445#0" />
	<connection from="664750439" to="32068445#1" />
	<connection from="-1365303272" to="-1022042159" />
	<connection from="-1365303274" to="-1365303273" />
	<connection from="-1365303273" to="-1365303272" />
	<connection from="-1211948281" to="674298798#5" />
	<connection from="-1211948281" to="-674298798#4" />
	<connection from="-1211948281" to="1211948281" />
	<connection from="75902759#0" to="75902752" />
	<connection from="75902759#0" to="75902759#1" />
	<connection from="75902759#0" to="-75902759#0" />
	<connection from="-1365303278" to="1365303278" />
	<connection from="-1365303278" to="-1365303279#1" />
	<connection from="-1365303278" to="1365303279#2" />
	<connection from="75902759#1" to="494919002#0" />
	<connection from="75902759#1" to="-28727447" />
	<connection from="75902759#1" to="-75902759#1" />
	<connection from="75902759#1" to="-25858535#2" />
	<connection from="-803544128" to="-25727612#2" />
	<connection from="-803544128" to="803544128" />
	<connection from="-803544128" to="25727612#3" />
	<connection from="1408683688" to="-100677294" />
	<connection from="1408683688" to="1057175904" />
	<connection from="1408683688" to="-1408683688" />
	<connection from="-803544124" to="-25727613#1" />
	<connection from="-803544124" to="25727613#2" />
	<connection from="-803544124" to="803544124" />
	<connection from="-803544127" to="803544127" />
	<connection from="-803544126" to="-803544125#0" />
	<connection from="-803544126" to="803544125#1" />
	<connection from="-803544126" to="803544126" />
	<connection from="1408683686" to="-1408683686" />
	<connection from="1408683686" to="891254822#0" />
	<connection from="30923088#2" to="-30923088#2" />
	<connection from="-803544123" to="-25727613#0" />
	<connection from="-803544123" to="25727613#1" />
	<connection from="-803544123" to="803544123" />
	<connection from="30923088#0" to="30923088#1" />
	<connection from="30923088#0" to="-1292748998" />
	<connection from="30923088#1" to="-324317871#0" />
	<connection from="30923088#1" to="30923088#2" />
	<connection from="30923088#1" to="-30923088#1" />
	<connection from="30923088#1" to="1292748996" />
	<connection from="-515553023#1" to="515553023#1" />
	<connection from="-515553023#1" to="-515553023#0" />
	<connection from="1365303278" to="-1365303279#2" />
	<connection from="1365303278" to="-1365303278" />
	<connection from="1365303278" to="1365303279#3" />
	<connection from="-515553023#2" to="-515553023#1" />
	<connection from="-515553023#2" to="765712850#1" />
	<connection from="-515553023#2" to="-765712850#0" />
	<connection from="-515553023#2" to="515553023#2" />
	<connection from="659182476#0" to="-659182477" />
	<connection from="659182476#0" to="-659182476#0" />
	<connection from="659182476#0" to="659182476#1" />
	<connection from="125665207#0" to="27671168#3" />
	<connection from="125665207#0" to="-125665207#0" />
	<connection from="125665207#0" to="125665207#1" />
	<connection from="125665207#0" to="-27671168#2" />
	<connection from="1365303274" to="1365303275#0" />
	<connection from="1365303272" to="1365303273" />
	<connection from="125665207#1" to="-125665207#1" />
	<connection from="125665207#1" to="49655177#6" />
	<connection from="125665207#1" to="-49655177#5" />
	<connection from="1365303273" to="1365303274" />
	<connection from="656919142" to="-656919142" />
	<connection from="-515553023#0" to="1198782484" />
	<connection from="-515553023#0" to="-28004238#7" />
	<connection from="-515553023#0" to="28004238#9" />
	<connection from="-515553023#0" to="515553023#0" />
	<connection from="1146511183" to="-1146511183" />
	<connection from="1146511183" to="24996482" />
	<connection from="1146511183" to="766456700" />
	<connection from="1146511181" to="289937315#2" />
	<connection from="1146511181" to="-1146511181" />
	<connection from="1146511181" to="-289937315#1" />
	<connection from="659182476#1" to="-659182476#1" />
	<connection from="659182476#1" to="-659182478#0" />
	<connection from="659182476#1" to="659182478#1" />
	<connection from="-742448554" to="742448554" />
	<connection from="-742448554" to="205504732#1" />
	<connection from="-742448554" to="-205504732#0" />
	<connection from="-1197472871" to="-388045624" />
	<connection from="944547141" to="-944547141" />
	<connection from="28005232#1" to="-102133583" />
	<connection from="28005232#1" to="44642795" />
	<connection from="28005232#1" to="44642803#0" />
	<connection from="28005232#1" to="-28005232#1" />
	<connection from="108958906#1" to="-108958906#1" />
	<connection from="108958906#1" to="38128302#2" />
	<connection from="108958906#1" to="-38128302#1" />
	<connection from="28005232#0" to="374862089" />
	<connection from="28005232#0" to="-28005232#0" />
	<connection from="28005232#0" to="28005232#1" />
	<connection from="838885466" to="-838885466" />
	<connection from="108958906#0" to="108958906#1" />
	<connection from="108958906#0" to="44642781" />
	<connection from="108958906#0" to="-108958906#0" />
	<connection from="838885465" to="838885466" />
	<connection from="944547142" to="-944547142" />
	<connection from="911086306" to="-911086306" />
	<connection from="911086306" to="-25727612#3" />
	<connection from="911086306" to="25727612#4" />
	<connection from="239893514#1" to="239893513#1" />
	<connection from="239893514#1" to="-239893513#0" />
	<connection from="239893514#1" to="-239893514#1" />
	<connection from="239893514#0" to="239893520#1" />
	<connection from="239893514#0" to="-239893520#0" />
	<connection from="239893514#0" to="239893514#1" />
	<connection from="239893514#0" to="-239893514#0" />
	<connection from="-75902759#0" to="75902759#0" />
	<connection from="-1197472873" to="-1197472871" />
	<connection from="-1197472873" to="1197472873" />
	<connection from="-75902759#1" to="75902752" />
	<connection from="-75902759#1" to="75902759#1" />
	<connection from="-75902759#1" to="-75902759#0" />
	<connection from="670262613" to="891258591#1" />
	<connection from="670262613" to="-891258591#0" />
	<connection from="670262613" to="-670262613" />
	<connection from="44011520#1" to="-30923082#1" />
	<connection from="44011520#0" to="-44011520#0" />
	<connection from="44011520#0" to="-741088047#0" />
	<connection from="44011520#0" to="44011520#1" />
	<connection from="44011520#0" to="741088047#1" />
	<connection from="-29402296" to="-29402295#2" />
	<connection from="-29402296" to="29402296" />
	<connection from="-29402296" to="35399514#0" />
	<connection from="-29402297" to="-29402296" />
	<connection from="-29402294" to="802126547" />
	<connection from="-29402294" to="-44011493#3" />
	<connection from="-29402294" to="29402294" />
	<connection from="-29402294" to="1189365209" />
	<connection from="-670266587#0" to="670266587#0" />
	<connection from="-670266587#0" to="-32530770#4" />
	<connection from="-670266587#0" to="670266745" />
	<connection from="-670266587#0" to="32530770#5" />
	<connection from="-670266587#1" to="670266587#1" />
	<connection from="-670266587#1" to="-670266587#0" />
	<connection from="-670266587#1" to="670266589" />
	<connection from="28727430#1" to="-681923049" />
	<connection from="28727430#1" to="-28727430#1" />
	<connection from="28727430#0" to="28727430#1" />
	<connection from="28727430#0" to="780109185" />
	<connection from="-309457300#1" to="-75902752" />
	<connection from="-309457300#1" to="-309457300#0" />
	<connection from="-309457300#1" to="309457300#1" />
	<connection from="681086792" to="-44642785#0" />
	<connection from="681086792" to="-681086792" />
	<connection from="681086792" to="44642785#1" />
	<connection from="103093867#4" to="-103093866#0" />
	<connection from="103093867#4" to="103093867#5" />
	<connection from="103093867#4" to="-58725674#1" />
	<connection from="103093867#4" to="103093866#1" />
	<connection from="103093867#4" to="-103093867#4" />
	<connection from="-309457300#0" to="-129860170" />
	<connection from="-309457300#0" to="309457300#0" />
	<connection from="-309457300#0" to="-25858535#1" />
	<connection from="-309457300#0" to="25858535#2" />
	<connection from="103093867#5" to="1408683688" />
	<connection from="-1420185445" to="-1420185446" />
	<connection from="103093867#2" to="1057175901" />
	<connection from="103093867#2" to="103093867#3" />
	<connection from="103093867#2" to="-103093867#2" />
	<connection from="103093867#3" to="103093867#4" />
	<connection from="103093867#3" to="-103093866#1" />
	<connection from="103093867#3" to="670262999#1" />
	<connection from="103093867#3" to="-103093867#3" />
	<connection from="103093867#3" to="103093866#2" />
	<connection from="103093867#0" to="44642803#1" />
	<connection from="103093867#0" to="-44642803#0" />
	<connection from="103093867#0" to="-103093867#0" />
	<connection from="103093867#0" to="103093867#1" />
	<connection from="-1420185446" to="-44642780" />
	<connection from="103093867#1" to="103093867#2" />
	<connection from="103093867#1" to="-103093867#1" />
	<connection from="103093867#1" to="-221757356#3" />
	<connection from="-202269621#3" to="-202269621#2" />
	<connection from="-202269621#3" to="202269621#3" />
	<connection from="-202269621#3" to="-436308597#1" />
	<connection from="-202269621#2" to="-202269621#1" />
	<connection from="-202269621#2" to="-44088392#1" />
	<connection from="-202269621#2" to="202269621#2" />
	<connection from="24230334" to="317210099" />
	<connection from="664750409" to="-664750409" />
	<connection from="664750409" to="209736758#0" />
	<connection from="664750409" to="388045629#0" />
	<connection from="-202269621#1" to="-202269621#0" />
	<connection from="-202269621#1" to="127729891#0" />
	<connection from="-202269621#1" to="202269621#1" />
	<connection from="-202269621#0" to="60702631" />
	<connection from="-202269621#0" to="202269621#0" />
	<connection from="-202269621#0" to="130075986#0" />
	<connection from="-28584568" to="271119818" />
	<connection from="-28584568" to="28584568" />
	<connection from="-28584568" to="-1206494769#2" />
	<connection from="-28584568" to="1206494769#4" />
	<connection from="-28584569" to="25396023#4" />
	<connection from="-28584569" to="-25396023#3" />
	<connection from="-28584569" to="28584569" />
	<connection from="-917125806" to="917125807#1" />
	<connection from="-917125806" to="-917125807#0" />
	<connection from="-917125806" to="917125806" />
	<connection from="-917125803" to="917125803" />
	<connection from="-917125803" to="-38128294#0" />
	<connection from="-917125803" to="38128294#1" />
	<connection from="664750413" to="664750412" />
	<connection from="-891254824#1" to="-891254826" />