<edges>
	<edge id="-24996482" from="281489882" to="cluster_256862780_3613754428" numLanes="1" shape="332044.13,5683259.16,0.00 332180.02,5683315.43,0.00" speed="13.89" />
	<edge id="917125807#1" from="8518336909" to="8518336908" numLanes="1" shape="332439.29,5681057.50,0.00 332541.94,5681030.36,0.00" speed="5.56" />
	<edge id="238136479" from="307497060" to="307497062" numLanes="1" shape="331800.57,5683279.00,0.00 331794.86,5683295.60,0.00" speed="13.89" />
	<edge id="238136477" from="8001435542" to="448706248" numLanes="1" shape="330980.61,5680618.25,0.00 331625.24,5680998.42,0.00" speed="27.78" />
	<edge id="388045486" from="cluster_2590004593_2590004818" to="cluster_313964524_313964525" numLanes="1" shape="331546.39,5684541.09,0.00 331574.35,5684520.77,0.00" speed="13.89" />
	<edge id="917125807#0" from="cluster_308981365_8518336910" to="8518336909" numLanes="1" shape="332260.20,5681101.11,0.00 332439.29,5681057.50,0.00" speed="5.56" />
	<edge id="-130075988#0" from="1433780899" to="1433780913" numLanes="1" shape="333834.07,5684349.02,0.00 333958.91,5684437.02,0.00 333963.65,5684440.04,0.00 333989.35,5684447.53,0.00 334024.79,5684457.71,0.00 334059.20,5684467.20,0.00 334079.07,5684469.17,0.00 334098.87,5684475.05,0.00 334117.03,5684480.82,0.00 334365.29,5684558.52,0.00 334512.30,5684650.12,0.00 334517.85,5684664.98,0.00" speed="5.56" />
	<edge id="388045484" from="cluster_11359647194_2589520367_2589520369_2589520370_#4more" to="27328898" numLanes="1" shape="331226.42,5684223.14,0.00 331194.29,5684183.79,0.00" speed="19.44" />
	<edge id="-130075988#1" from="1433780894" to="1433780899" numLanes="1" shape="333348.22,5683992.63,0.00 333834.07,5684349.02,0.00" speed="5.56" />
	<edge id="-130075988#2" from="1433780886" to="1433780894" numLanes="1" shape="333229.76,5683905.47,0.00 333348.22,5683992.63,0.00" speed="5.56" />
	<edge id="1126674469" from="10302312449" to="2718755226" numLanes="1" shape="332703.15,5686662.19,0.00 332712.37,5686701.21,0.00" speed="27.78" />
	<edge id="205504732#1" from="6950833669" to="6384777788" numLanes="1" shape="332289.56,5683802.70,0.00 332297.14,5683810.82,0.00 332307.17,5683826.78,0.00" speed="5.56" />
	<edge id="205504732#0" from="2154667147" to="6950833669" numLanes="1" shape="332195.88,5683762.02,0.00 332289.56,5683802.70,0.00" speed="5.56" />
	<edge id="-812750480" from="7591413441" to="7591413436" numLanes="1" shape="332010.77,5682745.87,0.00 332027.38,5682759.44,0.00 332028.64,5682761.40,0.00 332030.15,5682767.56,0.00 332031.42,5682769.51,0.00 332051.55,5682784.65,0.00" speed="5.56" />
	<edge id="28989139" from="727698763" to="318765797" numLanes="1" shape="334088.42,5680932.62,0.00 333855.44,5681037.81,0.00 333807.05,5681059.01,0.00 333792.18,5681067.96,0.00 333656.79,5681207.69,0.00 333588.87,5681278.34,0.00 333564.73,5681303.34,0.00 333520.25,5681349.42,0.00 333493.34,5681367.41,0.00 333485.08,5681371.62,0.00 333475.58,5681376.46,0.00 333448.30,5681389.43,0.00 333435.00,5681393.45,0.00 333422.00,5681395.31,0.00 333244.36,5681417.24,0.00" speed="5.56" />
	<edge id="238136486" from="6223797024" to="85982123" numLanes="1" shape="331911.92,5682735.16,0.00 331949.29,5682764.66,0.00 332001.77,5682805.63,0.00 332010.71,5682814.67,0.00 332019.20,5682826.35,0.00" speed="13.89" />
	<edge id="238136483" from="281489220" to="307506359" numLanes="1" shape="331743.08,5682757.01,0.00 331727.09,5682749.01,0.00 331713.72,5682736.02,0.00" speed="8.33" />
	<edge id="1253188971" from="271739121" to="4276753405" numLanes="1" shape="330865.32,5683263.47,0.00 330854.66,5683261.21,0.00 330845.42,5683260.67,0.00" speed="27.78" />
	<edge id="-293012660" from="631300290" to="631300300" numLanes="1" shape="333725.94,5685485.66,0.00 333693.13,5685518.40,0.00 333673.63,5685549.22,0.00 333658.07,5685579.92,0.00 333622.24,5685625.94,0.00 333565.63,5685711.52,0.00" speed="5.56" />
	<edge id="24675313" from="27328133" to="27328619" numLanes="1" shape="331851.23,5684845.94,0.00 331821.96,5684821.46,0.00" speed="27.78" />
	<edge id="25727612#2" from="7516410758" to="7516410759" numLanes="1" shape="332326.58,5682843.32,0.00 332348.36,5682852.71,0.00" speed="13.89" />
	<edge id="25727612#1" from="280539200" to="7516410758" numLanes="1" shape="332214.93,5682795.21,0.00 332326.58,5682843.32,0.00" speed="13.89" />
	<edge id="25727612#4" from="8459829191" to="278984455" numLanes="1" shape="332386.31,5682869.06,0.00 332460.23,5682900.92,0.00" speed="13.89" />
	<edge id="25727612#3" from="7516410759" to="8459829191" numLanes="1" shape="332348.36,5682852.71,0.00 332386.31,5682869.06,0.00" speed="13.89" />
	<edge id="-126386205" from="415280907" to="747359453" numLanes="1" shape="331981.73,5684985.80,0.00 331977.21,5684988.70,0.00 331965.57,5684997.66,0.00 331859.63,5685065.42,0.00 331827.81,5685101.46,0.00 331672.15,5685719.46,0.00" speed="5.56" />
	<edge id="238136492" from="6551605213" to="307497069" numLanes="1" shape="331720.34,5683271.50,0.00 331656.79,5683257.87,0.00 331635.58,5683251.84,0.00" speed="2.78" />
	<edge id="25727612#0" from="280539047" to="280539200" numLanes="1" shape="332088.06,5682739.68,0.00 332214.93,5682795.21,0.00" speed="13.89" />
	<edge id="-25939498#10" from="1730893038" to="360300082" numLanes="1" shape="331230.81,5684175.15,0.00 331231.15,5684160.07,0.00" speed="22.22" />
	<edge id="529492808" from="5143338720" to="5143341021" numLanes="1" shape="331360.48,5686696.58,0.00 331285.64,5686678.83,0.00" speed="5.56" />
	<edge id="809308678#0" from="7567248373" to="7567248375" numLanes="1" shape="331680.72,5684983.52,0.00 331596.32,5685041.82,0.00 331558.05,5685064.31,0.00" speed="5.56" />
	<edge id="809308678#1" from="7567248375" to="7593525456" numLanes="1" shape="331558.05,5685064.31,0.00 331509.23,5685103.72,0.00 331468.02,5685131.21,0.00 331423.70,5685163.47,0.00 331413.91,5685166.43,0.00" speed="5.56" />
	<edge id="681778294" from="759952923" to="6384777819" numLanes="1" shape="332544.96,5683244.31,0.00 332518.13,5683304.76,0.00" speed="5.56" />
	<edge id="809308678#2" from="7593525456" to="415280940" numLanes="1" shape="331413.91,5685166.43,0.00 331371.34,5685179.32,0.00 331336.35,5685176.38,0.00" speed="5.56" />
	<edge id="1215085208#1" from="cluster_300088626_360006318" to="11105026825" numLanes="1" shape="332451.47,5685834.92,0.00 332462.08,5685824.23,0.00 332469.57,5685817.60,0.00" speed="5.56" />
	<edge id="-428587287" from="271739135" to="2154457554" numLanes="1" shape="330762.14,5683295.64,0.00 330773.74,5683305.37,0.00 330785.40,5683316.81,0.00 330794.79,5683326.87,0.00 330805.05,5683338.48,0.00" speed="19.44" />
	<edge id="-428587286" from="282947274" to="271739123" numLanes="1" shape="330528.09,5683220.89,0.00 330567.69,5683221.07,0.00 330587.34,5683222.29,0.00 330614.80,5683226.88,0.00" speed="19.44" />
	<edge id="-127729891#0" from="10669782462" to="759952853" numLanes="1" shape="332676.62,5683714.13,0.00 332719.19,5683732.76,0.00 333034.79,5683922.40,0.00" speed="5.56" />
	<edge id="-127729891#1" from="759952857" to="10669782462" numLanes="1" shape="332416.97,5683600.50,0.00 332676.62,5683714.13,0.00" speed="5.56" />
	<edge id="-127729891#2" from="2154418418" to="759952857" numLanes="1" shape="332394.20,5683591.36,0.00 332416.97,5683600.50,0.00" speed="5.56" />
	<edge id="-127729891#3" from="1988907738" to="2154418418" numLanes="1" shape="332287.21,5683546.23,0.00 332394.20,5683591.36,0.00" speed="5.56" />
	<edge id="-25727612#1" from="7516410758" to="280539200" numLanes="1" shape="332326.58,5682843.32,0.00 332214.93,5682795.21,0.00" speed="13.89" />
	<edge id="-25727612#0" from="280539200" to="280539047" numLanes="1" shape="332214.93,5682795.21,0.00 332088.06,5682739.68,0.00" speed="13.89" />
	<edge id="-25727612#3" from="8459829191" to="7516410759" numLanes="1" shape="332386.31,5682869.06,0.00 332348.36,5682852.71,0.00" speed="13.89" />
	<edge id="-25727612#2" from="7516410759" to="7516410758" numLanes="1" shape="332348.36,5682852.71,0.00 332326.58,5682843.32,0.00" speed="13.89" />
	<edge id="-44642779#0" from="566682854" to="566682886" numLanes="1" shape="331778.19,5681434.94,0.00 331725.27,5681469.98,0.00" speed="5.56" />
	<edge id="-696747392" from="759952923" to="759952864" numLanes="1" shape="332544.96,5683244.31,0.00 332556.53,5683248.80,0.00 332536.83,5683316.19,0.00 332532.41,5683326.37,0.00" speed="5.56" />
	<edge id="-25727612#4" from="278984455" to="8459829191" numLanes="1" shape="332460.23,5682900.92,0.00 332386.31,5682869.06,0.00" speed="13.89" />
	<edge id="-1253188971" from="4276753405" to="271739121" numLanes="1" shape="330845.42,5683260.67,0.00 330854.66,5683261.21,0.00 330865.32,5683263.47,0.00" speed="27.78" />
	<edge id="-132688420" from="1459486600" to="1164668951" numLanes="1" shape="332109.64,5684673.65,0.00 332087.31,5684771.78,0.00 332088.33,5684791.52,0.00 332084.42,5684805.27,0.00" speed="5.56" />
	<edge id="512401065#0" from="415280897" to="5010277041" numLanes="1" shape="331432.12,5686635.84,0.00 331434.79,5686644.97,0.00 331448.97,5686669.09,0.00 331472.62,5686711.85,0.00" speed="5.56" />
	<edge id="512401065#1" from="5010277041" to="5010277046" numLanes="1" shape="331472.62,5686711.85,0.00 331504.85,5686772.05,0.00" speed="5.56" />
	<edge id="-135061898#0" from="1483760403" to="1483760394" numLanes="1" shape="333937.38,5684959.33,0.00 334022.93,5684880.53,0.00 334158.16,5684750.98,0.00" speed="5.56" />
	<edge id="26316488#0" from="cluster_276987055_288326299" to="288326320" numLanes="1" shape="332061.73,5683774.88,0.00 332053.59,5683794.05,0.00 332050.36,5683797.66,0.00 332038.87,5683820.94,0.00 332038.17,5683823.43,0.00 332038.11,5683825.56,0.00 332038.70,5683828.47,0.00 332044.88,5683844.16,0.00 332045.42,5683848.61,0.00 332043.99,5683852.67,0.00 332041.11,5683858.74,0.00 332038.58,5683862.15,0.00" speed="13.89" />
	<edge id="26316488#1" from="288326320" to="288326328" numLanes="1" shape="332038.58,5683862.15,0.00 332012.72,5683850.53,0.00" speed="13.89" />
	<edge id="1059785584#1" from="10127564078" to="9737006536" numLanes="1" shape="332409.51,5684382.04,0.00 332422.05,5684361.12,0.00" speed="2.78" />
	<edge id="25790385#0" from="271738428" to="7694524632" numLanes="1" shape="332803.10,5683439.59,0.00 332810.40,5683431.48,0.00 332847.72,5683400.63,0.00" speed="13.89" />
	<edge id="1059785584#0" from="9737006530" to="10127564078" numLanes="1" shape="332343.36,5684467.55,0.00 332348.90,5684447.58,0.00 332355.24,5684436.10,0.00 332367.30,5684425.70,0.00 332383.01,5684414.45,0.00 332397.07,5684402.03,0.00 332404.30,5684392.60,0.00 332409.51,5684382.04,0.00" speed="2.78" />
	<edge id="25790385#1" from="7694524632" to="6388275617" numLanes="1" shape="332847.72,5683400.63,0.00 332877.19,5683376.27,0.00" speed="13.89" />
	<edge id="25790385#2" from="6388275617" to="281294907" numLanes="1" shape="332877.19,5683376.27,0.00 332910.31,5683343.06,0.00" speed="13.89" />
	<edge id="681778229" from="6384778723" to="6384777343" numLanes="1" shape="331889.64,5684317.85,0.00 331895.04,5684301.65,0.00" speed="5.56" />
	<edge id="-824154637" from="7694921161" to="7694921160" numLanes="1" shape="332287.73,5683080.71,0.00 332324.70,5683097.76,0.00" speed="5.56" />
	<edge id="687051088" from="2154634832" to="6440502241" numLanes="1" shape="332760.20,5680835.20,0.00 332764.76,5681105.41,0.00 332877.62,5681104.32,0.00 332884.50,5681109.31,0.00 333076.93,5681106.49,0.00 333248.52,5681104.62,0.00 333441.99,5681103.54,0.00 333440.58,5680832.98,0.00 333440.31,5680784.22,0.00" speed="5.56" />
	<edge id="682256322" from="280539273" to="cluster_280539335_6389121058" numLanes="1" shape="332039.03,5682900.26,0.00 332014.24,5682889.90,0.00 331991.97,5682879.77,0.00 331988.54,5682874.40,0.00" speed="5.56" />
	<edge id="237453004" from="1730893039" to="1730893041" numLanes="1" shape="331250.67,5684173.23,0.00 331337.45,5684212.01,0.00" speed="5.56" />
	<edge id="-686870955" from="cluster_6438562509_746244575" to="6438562506" numLanes="1" shape="333117.62,5682667.26,0.00 333124.48,5682674.66,0.00 333128.75,5682678.00,0.00" speed="5.56" />
	<edge id="237453003" from="1730893039" to="2453449156" numLanes="1" shape="331250.67,5684173.23,0.00 331274.06,5684160.76,0.00 331300.43,5684140.32,0.00 331326.59,5684110.33,0.00 331350.88,5684080.40,0.00 331370.50,5684053.39,0.00 331389.16,5684020.69,0.00 331405.29,5683981.69,0.00 331415.24,5683959.51,0.00 331423.23,5683940.76,0.00 331427.94,5683930.16,0.00 331432.59,5683915.47,0.00" speed="5.56" />
	<edge id="44642779#0" from="566682886" to="566682854" numLanes="1" shape="331725.27,5681469.98,0.00 331778.19,5681434.94,0.00" speed="5.56" />
	<edge id="44642779#1" from="566682854" to="1015048944" numLanes="1" shape="331778.19,5681434.94,0.00 331863.98,5681373.66,0.00 331876.72,5681365.21,0.00" speed="5.56" />
	<edge id="891258591#0" from="6276839191" to="6276838651" numLanes="1" shape="332420.82,5681746.03,0.00 332413.90,5681728.75,0.00" speed="5.56" />
	<edge id="-669092713" from="6265579100" to="6265579097" numLanes="1" shape="331204.14,5683760.66,0.00 331137.28,5683745.80,0.00 331108.13,5683727.90,0.00 330981.09,5683700.79,0.00" speed="5.56" />
	<edge id="891258591#1" from="6276838651" to="727698734" numLanes="1" shape="332413.90,5681728.75,0.00 332347.96,5681571.97,0.00" speed="5.56" />
	<edge id="-25953580#12" from="cluster_10949374713_315856575" to="cluster_283136582_283136584" numLanes="1" shape="331714.79,5684589.74,0.00 331754.78,5684604.50,0.00 331769.82,5684605.54,0.00 331776.97,5684603.27,0.00 331785.87,5684594.83,0.00" speed="13.89" />
	<edge id="-25953580#10" from="cluster_283136582_283136584" to="cluster_10949374728_8359678043" numLanes="1" shape="331785.87,5684594.83,0.00 331789.03,5684578.98,0.00 331785.67,5684572.68,0.00" speed="13.89" />
	<edge id="-44642779#1" from="1015048944" to="566682854" numLanes="1" shape="331876.72,5681365.21,0.00 331863.98,5681373.66,0.00 331778.19,5681434.94,0.00" speed="5.56" />
	<edge id="-1408683774" from="5682793579" to="6551564271" numLanes="1" shape="332047.42,5681522.27,0.00 332038.58,5681522.04,0.00" speed="13.89" />
	<edge id="515553029#2" from="5174059278" to="5174059276" numLanes="1" shape="331739.98,5682962.94,0.00 331735.12,5682947.22,0.00" speed="2.78" />
	<edge id="515553029#3" from="5174059276" to="cluster_283140545_5034601568" numLanes="1" shape="331735.12,5682947.22,0.00 331724.76,5682922.86,0.00" speed="2.78" />
	<edge id="515553029#0" from="cluster_281191285_5034601567" to="5174059277" numLanes="1" shape="331754.74,5682997.47,0.00 331750.60,5682997.36,0.00 331746.92,5682985.42,0.00" speed="2.78" />
	<edge id="515553029#1" from="5174059277" to="5174059278" numLanes="1" shape="331746.92,5682985.42,0.00 331739.98,5682962.94,0.00" speed="2.78" />
	<edge id="-28004226#1" from="631300297" to="1483760408" numLanes="1" shape="333832.38,5685405.87,0.00 333823.35,5685395.25,0.00 333756.36,5685330.42,0.00 333647.21,5685224.22,0.00" speed="5.56" />
	<edge id="-28004226#0" from="1483760408" to="300088643" numLanes="1" shape="333647.21,5685224.22,0.00 333393.76,5684955.00,0.00" speed="5.56" />
	<edge id="-28004226#2" from="1318820572" to="631300297" numLanes="1" shape="333920.37,5685495.17,0.00 333887.16,5685455.86,0.00 333832.38,5685405.87,0.00" speed="5.56" />
	<edge id="1179805043#0" from="6909505458" to="6950765648" numLanes="1" shape="332091.03,5684126.12,0.00 332086.16,5684132.74,0.00 332049.15,5684198.69,0.00" speed="2.78" />
	<edge id="1324729835" from="6223713978" to="12258751569" numLanes="1" shape="331365.05,5683404.72,0.00 331366.02,5683395.67,0.00" speed="13.89" />
	<edge id="1179805043#2" from="10967319619" to="10957038393" numLanes="1" shape="332028.20,5684238.08,0.00 332022.91,5684250.65,0.00 332015.87,5684264.18,0.00 332008.39,5684298.09,0.00 332007.17,5684304.63,0.00" speed="2.78" />
	<edge id="1179805043#1" from="6950765648" to="10967319619" numLanes="1" shape="332049.15,5684198.69,0.00 332032.24,5684227.01,0.00 332028.20,5684238.08,0.00" speed="2.78" />
	<edge id="1324728507" from="1331083783" to="2590004842" numLanes="1" shape="331218.86,5683370.85,0.00 331198.37,5683363.03,0.00 331173.34,5683353.67,0.00" speed="13.89" />
	<edge id="-28747052#0" from="316073526" to="316073500" numLanes="1" shape="330179.44,5680976.60,0.00 330185.21,5680983.20,0.00 330190.73,5680987.01,0.00 330196.19,5680989.52,0.00 330200.33,5680991.19,0.00" speed="8.33" />
	<edge id="-28747052#1" from="316073534" to="316073526" numLanes="1" shape="330168.19,5680953.50,0.00 330173.28,5680965.24,0.00 330179.44,5680976.60,0.00" speed="8.33" />
	<edge id="-28747052#2" from="316073673" to="316073534" numLanes="1" shape="330206.45,5680991.24,0.00 330206.08,5680986.19,0.00 330206.33,5680979.74,0.00 330206.95,5680958.67,0.00 330211.19,5680934.54,0.00 330212.26,5680923.73,0.00 330212.75,5680913.23,0.00 330212.87,5680902.22,0.00 330211.68,5680890.82,0.00 330209.78,5680883.52,0.00 330207.96,5680876.87,0.00 330204.45,5680868.73,0.00 330200.84,5680863.77,0.00 330196.99,5680859.68,0.00 330192.24,5680855.23,0.00 330186.76,5680851.67,0.00 330183.20,5680849.72,0.00 330179.42,5680847.99,0.00 330177.18,5680847.93,0.00 330172.20,5680847.97,0.00 330166.45,5680849.68,0.00 330162.05,5680851.82,0.00 330157.16,5680856.63,0.00 330153.42,5680864.59,0.00 330151.13,5680871.52,0.00 330150.03,5680879.06,0.00 330150.51,5680890.72,0.00 330152.50,5680905.12,0.00 330154.48,5680914.74,0.00 330157.87,5680928.16,0.00 330160.47,5680935.75,0.00 330168.19,5680953.50,0.00" speed="8.33" />
	<edge id="-28747052#3" from="316073500" to="316073673" numLanes="1" shape="330200.33,5680991.19,0.00 330206.45,5680991.24,0.00" speed="8.33" />
	<edge id="-90973540" from="271739135" to="4276753405" numLanes="1" shape="330762.14,5683295.64,0.00 330765.00,5683292.59,0.00 330777.48,5683280.12,0.00 330785.81,5683273.48,0.00 330794.26,5683268.51,0.00 330802.71,5683265.17,0.00 330814.07,5683262.24,0.00 330826.29,5683261.07,0.00 330845.42,5683260.67,0.00" speed="27.78" />
	<edge id="-90973542" from="271739156" to="271742291" numLanes="1" shape="329440.39,5682859.16,0.00 329504.60,5682888.86,0.00 329537.69,5682903.37,0.00 329637.41,5682947.01,0.00 329732.92,5682986.97,0.00" speed="19.44" />
	<edge id="-28747134" from="316075275" to="316073534" numLanes="1" shape="330137.28,5680958.62,0.00 330149.42,5680956.09,0.00 330156.51,5680956.33,0.00 330168.19,5680953.50,0.00" speed="8.33" />
	<edge id="130075986#2" from="759952907" to="759952851" numLanes="1" shape="333105.03,5683741.45,0.00 333124.89,5683694.61,0.00 333129.76,5683683.80,0.00 333139.88,5683657.62,0.00 333144.66,5683643.21,0.00 333146.37,5683632.42,0.00" speed="5.56" />
	<edge id="28004226#0" from="300088643" to="1483760408" numLanes="1" shape="333393.76,5684955.00,0.00 333647.21,5685224.22,0.00" speed="5.56" />
	<edge id="130075986#0" from="1433780885" to="759952870" numLanes="1" shape="333051.22,5683879.57,0.00 333095.39,5683764.97,0.00" speed="5.56" />
	<edge id="28004226#1" from="1483760408" to="631300297" numLanes="1" shape="333647.21,5685224.22,0.00 333756.36,5685330.42,0.00 333823.35,5685395.25,0.00 333832.38,5685405.87,0.00" speed="5.56" />
	<edge id="130075986#1" from="759952870" to="759952907" numLanes="1" shape="333095.39,5683764.97,0.00 333105.03,5683741.45,0.00" speed="5.56" />
	<edge id="28004226#2" from="631300297" to="1318820572" numLanes="1" shape="333832.38,5685405.87,0.00 333887.16,5685455.86,0.00 333920.37,5685495.17,0.00" speed="5.56" />
	<edge id="-35399468" from="415280940" to="415280922" numLanes="1" shape="331336.35,5685176.38,0.00 331324.44,5685178.55,0.00" speed="5.56" />
	<edge id="239886536" from="2476618583" to="2476618579" numLanes="1" shape="332894.07,5684704.02,0.00 332907.43,5684647.45,0.00" speed="5.56" />
	<edge id="480278676#1" from="4732805027" to="4732805034" numLanes="1" shape="330586.77,5685732.46,0.00 330595.21,5685732.77,0.00" speed="5.56" />
	<edge id="480278676#0" from="4732805030" to="4732805027" numLanes="1" shape="330577.65,5685730.15,0.00 330586.77,5685732.46,0.00" speed="5.56" />
	<edge id="100946878" from="6469971432" to="6469971433" numLanes="1" shape="332608.36,5686160.27,0.00 332610.54,5686170.81,0.00 332613.46,5686178.40,0.00 332617.70,5686182.96,0.00" speed="5.56" />
	<edge id="-135061898#2" from="1483760415" to="1483760408" numLanes="1" shape="333604.57,5685265.01,0.00 333647.21,5685224.22,0.00" speed="5.56" />
	<edge id="-135061898#1" from="1483760408" to="1483760403" numLanes="1" shape="333647.21,5685224.22,0.00 333824.62,5685064.86,0.00 333925.01,5684970.91,0.00 333937.38,5684959.33,0.00" speed="5.56" />
	<edge id="1281226717#1" from="10093522021" to="759952874" numLanes="1" shape="332536.60,5684395.50,0.00 332510.98,5684383.88,0.00 332494.82,5684366.12,0.00 332467.89,5684349.45,0.00 332415.45,5684320.07,0.00 332363.16,5684288.70,0.00" speed="5.56" />
	<edge id="1281226717#0" from="2122444011" to="10093522021" numLanes="1" shape="332554.28,5684402.42,0.00 332536.60,5684395.50,0.00" speed="5.56" />
	<edge id="667591282#2" from="746244572" to="cluster_6438562509_746244575" numLanes="1" shape="333187.42,5682622.57,0.00 333117.62,5682667.26,0.00" speed="19.44" />
	<edge id="667591282#1" from="cluster_3158275708_6250769050_746244580" to="746244572" numLanes="1" shape="333268.60,5682580.44,0.00 333240.56,5682592.02,0.00 333187.42,5682622.57,0.00" speed="19.44" />
	<edge id="1281226717#2" from="759952874" to="9421086229" numLanes="1" shape="332363.16,5684288.70,0.00 332353.46,5684282.71,0.00 332340.14,5684276.24,0.00 332332.73,5684275.45,0.00 332328.68,5684277.64,0.00 332288.36,5684321.35,0.00 332282.30,5684330.97,0.00" speed="5.56" />
	<edge id="1211948279#0" from="11228129180" to="11228129183" numLanes="1" shape="332253.41,5684505.12,0.00 332242.80,5684500.83,0.00 332223.49,5684491.27,0.00 332205.43,5684480.01,0.00" speed="2.78" />
	<edge id="1211948279#1" from="11228129183" to="11228129179" numLanes="1" shape="332205.43,5684480.01,0.00 332195.21,5684471.43,0.00" speed="2.78" />
	<edge id="1211948279#2" from="11228129179" to="11228129187" numLanes="1" shape="332195.21,5684471.43,0.00 332187.99,5684461.92,0.00 332179.81,5684446.59,0.00 332175.12,5684432.28,0.00 332172.51,5684415.55,0.00" speed="2.78" />
	<edge id="28747052#2" from="316073534" to="316073673" numLanes="1" shape="330168.19,5680953.50,0.00 330160.47,5680935.75,0.00 330157.87,5680928.16,0.00 330154.48,5680914.74,0.00 330152.50,5680905.12,0.00 330150.51,5680890.72,0.00 330150.03,5680879.06,0.00 330151.13,5680871.52,0.00 330153.42,5680864.59,0.00 330157.16,5680856.63,0.00 330162.05,5680851.82,0.00 330166.45,5680849.68,0.00 330172.20,5680847.97,0.00 330177.18,5680847.93,0.00 330179.42,5680847.99,0.00 330183.20,5680849.72,0.00 330186.76,5680851.67,0.00 330192.24,5680855.23,0.00 330196.99,5680859.68,0.00 330200.84,5680863.77,0.00 330204.45,5680868.73,0.00 330207.96,5680876.87,0.00 330209.78,5680883.52,0.00 330211.68,5680890.82,0.00 330212.87,5680902.22,0.00 330212.75,5680913.23,0.00 330212.26,5680923.73,0.00 330211.19,5680934.54,0.00 330206.95,5680958.67,0.00 330206.33,5680979.74,0.00 330206.08,5680986.19,0.00 330206.45,5680991.24,0.00" speed="8.33" />
	<edge id="28747052#3" from="316073673" to="316073500" numLanes="1" shape="330206.45,5680991.24,0.00 330200.33,5680991.19,0.00" speed="8.33" />
	<edge id="521819874#0" from="5083806354" to="5083806355" numLanes="1" shape="331695.76,5682892.00,0.00 331697.77,5682873.91,0.00" speed="2.78" />
	<edge id="521819874#1" from="5083806355" to="5083806379" numLanes="1" shape="331697.77,5682873.91,0.00 331701.51,5682874.96,0.00" speed="2.78" />
	<edge id="1365303275#1" from="9426240593" to="9426240594" numLanes="1" shape="331301.17,5683745.20,0.00 331272.92,5683738.04,0.00" speed="13.89" />
	<edge id="521819874#2" from="5083806379" to="5083806357" numLanes="1" shape="331701.51,5682874.96,0.00 331714.34,5682878.56,0.00" speed="2.78" />
	<edge id="1365303275#0" from="12643328827" to="9426240593" numLanes="1" shape="331294.80,5683770.83,0.00 331301.17,5683745.20,0.00" speed="13.89" />
	<edge id="521819874#3" from="5083806357" to="5083806356" numLanes="1" shape="331714.34,5682878.56,0.00 331725.79,5682882.13,0.00" speed="2.78" />
	<edge id="28747052#0" from="316073500" to="316073526" numLanes="1" shape="330200.33,5680991.19,0.00 330196.19,5680989.52,0.00 330190.73,5680987.01,0.00 330185.21,5680983.20,0.00 330179.44,5680976.60,0.00" speed="8.33" />
	<edge id="1365303275#2" from="9426240594" to="12643328847" numLanes="1" shape="331272.92,5683738.04,0.00 331275.14,5683728.25,0.00" speed="13.89" />
	<edge id="28747052#1" from="316073526" to="316073534" numLanes="1" shape="330179.44,5680976.60,0.00 330173.28,5680965.24,0.00 330168.19,5680953.50,0.00" speed="8.33" />
	<edge id="1211948279#3" from="11228129187" to="11228129152" numLanes="1" shape="332172.51,5684415.55,0.00 332172.06,5684398.58,0.00 332173.54,5684386.77,0.00 332176.18,5684381.64,0.00 332183.57,5684372.91,0.00 332187.84,5684368.28,0.00" speed="2.78" />
	<edge id="891254822#0" from="9713879086" to="1163878867" numLanes="1" shape="331989.48,5681591.01,0.00 331939.54,5681660.03,0.00 331900.87,5681718.15,0.00" speed="5.56" />
	<edge id="891254822#1" from="1163878867" to="1163878877" numLanes="1" shape="331900.87,5681718.15,0.00 331904.08,5681729.73,0.00 331917.12,5681770.78,0.00" speed="5.56" />
	<edge id="-667591285#1" from="3464826074" to="cluster_6250769052_684639609" numLanes="1" shape="333503.71,5682442.62,0.00 333536.87,5682421.47,0.00" speed="19.44" />
	<edge id="-667591285#0" from="cluster_6250769052_684639609" to="3464826070" numLanes="1" shape="333536.87,5682421.47,0.00 333614.10,5682351.65,0.00 333626.60,5682342.01,0.00" speed="19.44" />
	<edge id="1211948280" from="11228129187" to="11228129194" numLanes="1" shape="332172.51,5684415.55,0.00 332160.40,5684416.97,0.00 332156.61,5684418.69,0.00 332145.71,5684428.67,0.00" speed="2.78" />
	<edge id="1211948281" from="11228129209" to="11228129217" numLanes="1" shape="331495.59,5683962.76,0.00 331490.56,5683959.18,0.00 331486.81,5683950.56,0.00 331482.20,5683934.32,0.00 331481.92,5683925.71,0.00 331481.92,5683916.92,0.00 331476.63,5683904.93,0.00 331471.91,5683899.36,0.00 331466.60,5683895.49,0.00" speed="5.56" />
	<edge id="-75902782#1" from="895943125" to="895942991" numLanes="1" shape="332526.21,5682991.74,0.00 332524.25,5682984.13,0.00 332546.74,5682946.65,0.00" speed="2.78" />
	<edge id="-664919619" from="6223714743" to="6223714745" numLanes="1" shape="331905.24,5683453.87,0.00 331902.84,5683458.73,0.00" speed="5.56" />
	<edge id="-75902782#0" from="895942991" to="895943765" numLanes="1" shape="332546.74,5682946.65,0.00 332570.42,5682903.62,0.00" speed="2.78" />
	<edge id="-75902782#2" from="895943762" to="895943125" numLanes="1" shape="332617.28,5683030.56,0.00 332532.80,5682994.04,0.00 332526.21,5682991.74,0.00" speed="2.78" />
	<edge id="936226022" from="8675284919" to="8675284927" numLanes="1" shape="329982.55,5686730.89,0.00 330010.75,5686751.66,0.00 330033.15,5686769.33,0.00 330045.95,5686778.61,0.00 330050.81,5686780.17,0.00 330056.30,5686779.29,0.00 330063.10,5686772.16,0.00 330074.56,5686758.17,0.00 330089.06,5686739.63,0.00" speed="5.56" />
	<edge id="-239893520#0" from="2476669481" to="2476669448" numLanes="1" shape="333160.87,5684370.91,0.00 333136.08,5684356.21,0.00" speed="5.56" />
	<edge id="664919543#1" from="6223713977" to="6558160193" numLanes="1" shape="331372.32,5683337.06,0.00 331370.92,5683324.75,0.00 331368.36,5683313.27,0.00 331353.54,5683266.44,0.00" speed="13.89" />
	<edge id="664919543#0" from="12258751569" to="6223713977" numLanes="1" shape="331366.02,5683395.67,0.00 331372.32,5683337.06,0.00" speed="13.89" />
	<edge id="-239893520#2" from="2476669557" to="2476669504" numLanes="1" shape="333185.04,5684398.43,0.00 333182.55,5684389.67,0.00 333180.44,5684385.42,0.00 333176.77,5684381.70,0.00 333169.12,5684376.94,0.00" speed="5.56" />
	<edge id="-239893520#1" from="2476669504" to="2476669481" numLanes="1" shape="333169.12,5684376.94,0.00 333160.87,5684370.91,0.00" speed="5.56" />
	<edge id="75902782#2" from="895943125" to="895943762" numLanes="1" shape="332526.21,5682991.74,0.00 332532.80,5682994.04,0.00 332617.28,5683030.56,0.00" speed="2.78" />
	<edge id="75902782#1" from="895942991" to="895943125" numLanes="1" shape="332546.74,5682946.65,0.00 332524.25,5682984.13,0.00 332526.21,5682991.74,0.00" speed="2.78" />
	<edge id="75902782#0" from="895943765" to="895942991" numLanes="1" shape="332570.42,5682903.62,0.00 332546.74,5682946.65,0.00" speed="2.78" />
	<edge id="100946833" from="1166162864" to="1166162873" numLanes="1" shape="333342.66,5685901.85,0.00 333361.81,5685948.33,0.00 333367.79,5685966.63,0.00 333372.09,5685976.52,0.00" speed="5.56" />
	<edge id="118353597" from="1331096070" to="1331096057" numLanes="1" shape="330003.36,5686658.87,0.00 330071.87,5686572.68,0.00" speed="13.89" />
	<edge id="374860425" from="3782403028" to="cluster_10669782597_256862799_3782403023" numLanes="1" shape="332229.68,5683298.86,0.00 332263.81,5683226.18,0.00 332263.42,5683221.42,0.00 332259.63,5683208.45,0.00" speed="2.78" />
	<edge id="374860424" from="3782403045" to="3782403043" numLanes="1" shape="332207.30,5683427.84,0.00 332185.24,5683420.41,0.00" speed="2.78" />
	<edge id="374860427" from="cluster_2154457558_3782403041" to="3782403039" numLanes="1" shape="332226.30,5683419.74,0.00 332222.28,5683416.48,0.00 332212.96,5683412.57,0.00" speed="5.56" />
	<edge id="374860426" from="3782403037" to="3782403043" numLanes="1" shape="332188.62,5683410.82,0.00 332185.24,5683420.41,0.00" speed="1.39" />
	<edge id="374860423" from="3782403039" to="3782403036" numLanes="1" shape="332212.96,5683412.57,0.00 332204.34,5683409.20,0.00" speed="2.78" />
	<edge id="374860422" from="3782403039" to="3782403045" numLanes="1" shape="332212.96,5683412.57,0.00 332207.30,5683427.84,0.00" speed="1.39" />
	<edge id="374860428" from="3782403026" to="895943087" numLanes="1" shape="332251.73,5683284.97,0.00 332253.84,5683285.71,0.00 332274.41,5683236.65,0.00 332277.49,5683232.28,0.00 332280.82,5683224.83,0.00 332284.47,5683217.07,0.00" speed="2.78" />