<?xml version="1.0" ?>
<routes>
    <person id="p1" depart="6">
        <ride from="28140027#0" to="-25415039#3" lines="taxi"/>
    </person>
    <person id="p2" depart="10">
        <ride from="24996585#0" to="-25415039#3" lines="taxi"/>
    </person>
    <person id="p3" depart="14">
        <ride from="-25415038#4" to="-25415039#3" lines="taxi"/>
    </person>
    <person id="p4" depart="20">
        <ride from="-661814892" to="-25415039#3" lines="taxi"/>
    </person>
    <person id="p5" depart="25">
        <ride from="-32091203#2" to="-25415039#3" lines="taxi"/>
    </person>
    <person id="p6" depart="26">
        <ride from="-60702646" to="-25415039#3" lines="taxi"/>
    </person>
    <person id="p7" depart="27">
        <ride from="-28004236" to="-25415039#3" lines="taxi"/>
    </person>
    <person id="p8" depart="29">
        <ride from="1215949438" to="-25415039#3" lines="taxi"/>
    </person>
    <person id="p9" depart="30">
        <ride from="-193164108#1" to="-25415039#3" lines="taxi"/>
    </person>
    <person id="p10" depart="35">
        <ride from="-25335407#2" to="-25415039#3" lines="taxi"/>
    </person>
    <person id="p11" depart="47">
        <ride from="28140027#0" to="-25415039#3" lines="taxi"/>
    </person>
    <person id="p12" depart="49">
        <ride from="37996159#1" to="-25415039#3" lines="taxi"/>
    </person>
    <person id="p13" depart="51">
        <ride from="-25335407#2" to="-25415039#3" lines="taxi"/>
    </person>
    <person id="p14" depart="58">
        <ride from="44642805#0" to="-25415039#3" lines="taxi"/>
    </person>
    <person id="p15" depart="58">
        <ride from="-25593394#0" to="-25415039#3" lines="taxi"/>
    </person>
    <person id="p16" depart="62">
        <ride from="44443593#2" to="-25415039#3" lines="taxi"/>
    </person>
    <person id="p17" depart="62">
        <ride from="-28132132#0" to="-25415039#3" lines="taxi"/>
    </person>
    <person id="p18" depart="68">
        <ride from="-25727611#1" to="-25415039#3" lines="taxi"/>
    </person>
    <person id="p19" depart="68">
        <ride from="132619396#0" to="-25415039#3" lines="taxi"/>
    </person>
    <person id="p20" depart="73">
        <ride from="-25335407#2" to="-25415039#3" lines="taxi"/>
    </person>
    <person id="p21" depart="76">
        <ride from="-28004236" to="-25415039#3" lines="taxi"/>
    </person>
    <person id="p22" depart="76">
        <ride from="132619396#0" to="-25415039#3" lines="taxi"/>
    </person>
    <person id="p23" depart="78">
        <ride from="37996159#1" to="-25415039#3" lines="taxi"/>
    </person>
    <person id="p24" depart="80">
        <ride from="1215949438" to="-25415039#3" lines="taxi"/>
    </person>
    <person id="p25" depart="81">
        <ride from="-252947536#1" to="-25415039#3" lines="taxi"/>
    </person>
    <person id="p26" depart="83">
        <ride from="-1022042157#2" to="-25415039#3" lines="taxi"/>
    </person>
    <person id="p27" depart="87">
        <ride from="-28132131" to="-25415039#3" lines="taxi"/>
    </person>
    <person id="p28" depart="94">
        <ride from="28124693#0" to="-25415039#3" lines="taxi"/>
    </person>
    <person id="p29" depart="98">
        <ride from="132619396#0" to="-25415039#3" lines="taxi"/>
    </person>
    <person id="p30" depart="98">
        <ride from="238136480#1" to="-25415039#3" lines="taxi"/>
    </person>
    <person id="p31" depart="99">
        <ride from="-60702646" to="-25415039#3" lines="taxi"/>
    </person>
    <person id="p32" depart="104">
        <ride from="-122259339#5" to="-25415039#3" lines="taxi"/>
    </person>
    <person id="p33" depart="110">
        <ride from="26668849#2" to="-25415039#3" lines="taxi"/>
    </person>
    <person id="p34" depart="112">
        <ride from="103093870#1" to="-25415039#3" lines="taxi"/>
    </person>
    <person id="p35" depart="115">
        <ride from="-122259339#5" to="-25415039#3" lines="taxi"/>
    </person>
    <person id="p36" depart="119">
        <ride from="37996159#1" to="-25415039#3" lines="taxi"/>
    </person>
    <person id="p37" depart="126">
        <ride from="-25415038#4" to="-25415039#3" lines="taxi"/>
    </person>
    <person id="p38" depart="127">
        <ride from="-742449277#0" to="-25415039#3" lines="taxi"/>
    </person>
    <person id="p39" depart="130">
        <ride from="-18784601#1" to="-25415039#3" lines="taxi"/>
    </person>
    <person id="p40" depart="133">
        <ride from="28725589" to="-25415039#3" lines="taxi"/>
    </person>
    <person id="p41" depart="144">
        <ride from="238136480#1" to="-25415039#3" lines="taxi"/>
    </person>
    <person id="p42" depart="148">
        <ride from="25593376#3" to="-25415039#3" lines="taxi"/>
    </person>
    <person id="p43" depart="151">
        <ride from="25939498#3" to="-25415039#3" lines="taxi"/>
    </person>
    <person id="p44" depart="157">
        <ride from="25790390" to="-25415039#3" lines="taxi"/>
    </person>
    <person id="p45" depart="159">
        <ride from="28727437#1" to="-25415039#3" lines="taxi"/>
    </person>
    <person id="p46" depart="161">
        <ride from="-32091203#2" to="-25415039#3" lines="taxi"/>
    </person>
    <person id="p47" depart="162">
        <ride from="28140027#0" to="-25415039#3" lines="taxi"/>
    </person>
    <person id="p48" depart="162">
        <ride from="-37996558#1" to="-25415039#3" lines="taxi"/>
    </person>
    <person id="p49" depart="164">
        <ride from="44642805#0" to="-25415039#3" lines="taxi"/>
    </person>
    <person id="p50" depart="167">
        <ride from="-25807021#2" to="-25415039#3" lines="taxi"/>
    </person>
    <person id="p51" depart="168">
        <ride from="28124696#0" to="-25415039#3" lines="taxi"/>
    </person>
    <person id="p52" depart="169">
        <ride from="289937319" to="-25415039#3" lines="taxi"/>
    </person>
    <person id="p53" depart="170">
        <ride from="-75902756#1" to="-25415039#3" lines="taxi"/>
    </person>
    <person id="p54" depart="175">
        <ride from="1361425836#1" to="-25415039#3" lines="taxi"/>
    </person>
    <person id="p55" depart="177">
        <ride from="268504689#2" to="-25415039#3" lines="taxi"/>
    </person>
    <person id="p56" depart="184">
        <ride from="25939498#3" to="-25415039#3" lines="taxi"/>
    </person>
    <person id="p57" depart="184">
        <ride from="-25335407#2" to="-25415039#3" lines="taxi"/>
    </person>
    <person id="p58" depart="195">
        <ride from="-38128299#1" to="-25415039#3" lines="taxi"/>
    </person>
    <person id="p59" depart="206">
        <ride from="-193164108#1" to="-25415039#3" lines="taxi"/>
    </person>
    <person id="p60" depart="212">
        <ride from="28124696#0" to="-25415039#3" lines="taxi"/>
    </person>
    <person id="p61" depart="216">
        <ride from="25939498#3" to="-25415039#3" lines="taxi"/>
    </person>
    <person id="p62" depart="217">
        <ride from="28725589" to="-25415039#3" lines="taxi"/>
    </person>
    <person id="p63" depart="237">
        <ride from="-25335407#2" to="-25415039#3" lines="taxi"/>
    </person>
    <person id="p64" depart="247">
        <ride from="28124696#0" to="-25415039#3" lines="taxi"/>
    </person>
    <person id="p65" depart="250">
        <ride from="37996159#1" to="-25415039#3" lines="taxi"/>
    </person>
    <person id="p66" depart="253">
        <ride from="-253010733#1" to="-25415039#3" lines="taxi"/>
    </person>
    <person id="p67" depart="256">
        <ride from="24996585#0" to="-25415039#3" lines="taxi"/>
    </person>
    <person id="p68" depart="263">
        <ride from="-25593394#0" to="-25415039#3" lines="taxi"/>
    </person>
    <person id="p69" depart="263">
        <ride from="-28132132#0" to="-25415039#3" lines="taxi"/>
    </person>
    <person id="p70" depart="270">
        <ride from="-37996558#1" to="-25415039#3" lines="taxi"/>
    </person>
    <person id="p71" depart="270">
        <ride from="-37996558#1" to="-25415039#3" lines="taxi"/>
    </person>
    <person id="p72" depart="271">
        <ride from="28124696#0" to="-25415039#3" lines="taxi"/>
    </person>
    <person id="p73" depart="285">
        <ride from="44642805#0" to="-25415039#3" lines="taxi"/>
    </person>
    <person id="p74" depart="288">
        <ride from="24996585#0" to="-25415039#3" lines="taxi"/>
    </person>
    <person id="p75" depart="289">
        <ride from="-75902756#1" to="-25415039#3" lines="taxi"/>
    </person>
    <person id="p76" depart="298">
        <ride from="-18784601#1" to="-25415039#3" lines="taxi"/>
    </person>
    <person id="p77" depart="301">
        <ride from="1059785584#0" to="-25415039#3" lines="taxi"/>
    </person>
    <person id="p78" depart="302">
        <ride from="-1022042157#2" to="-25415039#3" lines="taxi"/>
    </person>
    <person id="p79" depart="316">
        <ride from="-60702646" to="-25415039#3" lines="taxi"/>
    </person>
    <person id="p80" depart="319">
        <ride from="44443593#2" to="-25415039#3" lines="taxi"/>
    </person>
    <person id="p81" depart="322">
        <ride from="28140027#0" to="-25415039#3" lines="taxi"/>
    </person>
    <person id="p82" depart="327">
        <ride from="-60702646" to="-25415039#3" lines="taxi"/>
    </person>
    <person id="p83" depart="338">
        <ride from="-28132131" to="-25415039#3" lines="taxi"/>
    </person>
    <person id="p84" depart="349">
        <ride from="28140027#0" to="-25415039#3" lines="taxi"/>
    </person>
    <person id="p85" depart="354">
        <ride from="-25807021#2" to="-25415039#3" lines="taxi"/>
    </person>
    <person id="p86" depart="357">
        <ride from="-252947536#1" to="-25415039#3" lines="taxi"/>
    </person>
    <person id="p87" depart="358">
        <ride from="-75902756#1" to="-25415039#3" lines="taxi"/>
    </person>
    <person id="p88" depart="369">
        <ride from="-238136477" to="-25415039#3" lines="taxi"/>
    </person>
    <person id="p89" depart="371">
        <ride from="-37996558#1" to="-25415039#3" lines="taxi"/>
    </person>
    <person id="p90" depart="374">
        <ride from="44642805#0" to="-25415039#3" lines="taxi"/>
    </person>
    <person id="p91" depart="388">
        <ride from="289937319" to="-25415039#3" lines="taxi"/>
    </person>
    <person id="p92" depart="405">
        <ride from="26668849#2" to="-25415039#3" lines="taxi"/>
    </person>
    <person id="p93" depart="408">
        <ride from="-75902756#1" to="-25415039#3" lines="taxi"/>
    </person>
    <person id="p94" depart="414">
        <ride from="-60702646" to="-25415039#3" lines="taxi"/>
    </person>
    <person id="p95" depart="419">
        <ride from="44443593#2" to="-25415039#3" lines="taxi"/>
    </person>
    <person id="p96" depart="428">
        <ride from="-32091203#2" to="-25415039#3" lines="taxi"/>
    </person>
    <person id="p97" depart="437">
        <ride from="28124696#0" to="-25415039#3" lines="taxi"/>
    </person>
    <person id="p98" depart="438">
        <ride from="25790390" to="-25415039#3" lines="taxi"/>
    </person>
    <person id="p99" depart="440">
        <ride from="-25593394#0" to="-25415039#3" lines="taxi"/>
    </person>
    <person id="p100" depart="444">
        <ride from="-25335407#2" to="-25415039#3" lines="taxi"/>
    </person>
    <person id="p101" depart="446">
        <ride from="-661814892" to="-25415039#3" lines="taxi"/>
    </person>
    <person id="p102" depart="453">
        <ride from="25593376#3" to="-25415039#3" lines="taxi"/>
    </person>
    <person id="p103" depart="455">
        <ride from="-38128299#1" to="-25415039#3" lines="taxi"/>
    </person>
    <person id="p104" depart="456">
        <ride from="289937319" to="-25415039#3" lines="taxi"/>
    </person>
    <person id="p105" depart="458">
        <ride from="-18784601#1" to="-25415039#3" lines="taxi"/>
    </person>
    <person id="p106" depart="463">
        <ride from="268504689#2" to="-25415039#3" lines="taxi"/>
    </person>
    <person id="p107" depart="468">
        <ride from="-60702646" to="-25415039#3" lines="taxi"/>
    </person>
    <person id="p108" depart="474">
        <ride from="-25593394#0" to="-25415039#3" lines="taxi"/>
    </person>
    <person id="p109" depart="477">
        <ride from="-253010733#1" to="-25415039#3" lines="taxi"/>
    </person>
    <person id="p110" depart="489">
        <ride from="1361425836#1" to="-25415039#3" lines="taxi"/>
    </person>
    <person id="p111" depart="493">
        <ride from="-661814892" to="-25415039#3" lines="taxi"/>
    </person>
    <person id="p112" depart="493">
        <ride from="-122259339#5" to="-25415039#3" lines="taxi"/>
    </person>
    <person id="p113" depart="500">
        <ride from="-28132131" to="-25415039#3" lines="taxi"/>
    </person>
    <person id="p114" depart="506">
        <ride from="-661814892" to="-25415039#3" lines="taxi"/>
    </person>
    <person id="p115" depart="512">
        <ride from="1189365209" to="-25415039#3" lines="taxi"/>
    </person>
    <person id="p116" depart="514">
        <ride from="1215949438" to="-25415039#3" lines="taxi"/>
    </person>
    <person id="p117" depart="516">
        <ride from="67624333" to="-25415039#3" lines="taxi"/>
    </person>
    <person id="p118" depart="517">
        <ride from="-238136477" to="-25415039#3" lines="taxi"/>
    </person>
    <person id="p119" depart="517">
        <ride from="-122259339#5" to="-25415039#3" lines="taxi"/>
    </person>
    <person id="p120" depart="522">
        <ride from="44443593#2" to="-25415039#3" lines="taxi"/>
    </person>
    <person id="p121" depart="524">
        <ride from="-661814892" to="-25415039#3" lines="taxi"/>
    </person>
    <person id="p122" depart="526">
        <ride from="268504689#2" to="-25415039#3" lines="taxi"/>
    </person>
    <person id="p123" depart="529">
        <ride from="268504689#2" to="-25415039#3" lines="taxi"/>
    </person>
    <person id="p124" depart="531">
        <ride from="-60702646" to="-25415039#3" lines="taxi"/>
    </person>
    <person id="p125" depart="532">
        <ride from="24996585#0" to="-25415039#3" lines="taxi"/>
    </person>
    <person id="p126" depart="534">
        <ride from="-28132132#0" to="-25415039#3" lines="taxi"/>
    </person>
    <person id="p127" depart="540">
        <ride from="25939498#3" to="-25415039#3" lines="taxi"/>
    </person>
    <person id="p128" depart="541">
        <ride from="-60702646" to="-25415039#3" lines="taxi"/>
    </person>
    <person id="p129" depart="541">
        <ride from="1361425836#1" to="-25415039#3" lines="taxi"/>
    </person>
    <person id="p130" depart="545">
        <ride from="-28132132#0" to="-25415039#3" lines="taxi"/>
    </person>
    <person id="p131" depart="546">
        <ride from="28140027#0" to="-25415039#3" lines="taxi"/>
    </person>
    <person id="p132" depart="552">
        <ride from="1059785584#0" to="-25415039#3" lines="taxi"/>
    </person>
    <person id="p133" depart="560">
        <ride from="-28132132#0" to="-25415039#3" lines="taxi"/>
    </person>
    <person id="p134" depart="565">
        <ride from="103093870#1" to="-25415039#3" lines="taxi"/>
    </person>
    <person id="p135" depart="573">
        <ride from="-1022042157#2" to="-25415039#3" lines="taxi"/>
    </person>
    <person id="p136" depart="576">
        <ride from="-28132132#0" to="-25415039#3" lines="taxi"/>
    </person>
    <person id="p137" depart="584">
        <ride from="-28132132#0" to="-25415039#3" lines="taxi"/>
    </person>
    <person id="p138" depart="588">
        <ride from="28124696#0" to="-25415039#3" lines="taxi"/>
    </person>
    <person id="p139" depart="597">
        <ride from="28124696#0" to="-25415039#3" lines="taxi"/>
    </person>
    <person id="p140" depart="603">
        <ride from="-60702646" to="-25415039#3" lines="taxi"/>
    </person>
    <person id="p141" depart="616">
        <ride from="238136480#1" to="-25415039#3" lines="taxi"/>
    </person>
    <person id="p142" depart="628">
        <ride from="289937319" to="-25415039#3" lines="taxi"/>
    </person>
    <person id="p143" depart="631">
        <ride from="-253010733#1" to="-25415039#3" lines="taxi"/>
    </person>
    <person id="p144" depart="634">
        <ride from="-253010733#1" to="-25415039#3" lines="taxi"/>
    </person>
    <person id="p145" depart="640">
        <ride from="25790390" to="-25415039#3" lines="taxi"/>
    </person>
    <person id="p146" depart="641">
        <ride from="-32091203#2" to="-25415039#3" lines="taxi"/>
    </person>
    <person id="p147" depart="641">
        <ride from="1021479206#5" to="-25415039#3" lines="taxi"/>
    </person>
    <person id="p148" depart="650">
        <ride from="-661814892" to="-25415039#3" lines="taxi"/>
    </person>
    <person id="p149" depart="651">
        <ride from="-25335407#2" to="-25415039#3" lines="taxi"/>
    </person>
    <person id="p150" depart="652">
        <ride from="132619396#0" to="-25415039#3" lines="taxi"/>
    </person>
    <person id="p151" depart="654">
        <ride from="28124696#0" to="-25415039#3" lines="taxi"/>
    </person>
    <person id="p152" depart="658">
        <ride from="-238136477" to="-25415039#3" lines="taxi"/>
    </person>
    <person id="p153" depart="671">
        <ride from="28725589" to="-25415039#3" lines="taxi"/>
    </person>
    <person id="p154" depart="672">
        <ride from="-28132131" to="-25415039#3" lines="taxi"/>
    </person>
    <person id="p155" depart="672">
        <ride from="-25727611#1" to="-25415039#3" lines="taxi"/>
    </person>
    <person id="p156" depart="672">
        <ride from="-25727611#1" to="-25415039#3" lines="taxi"/>
    </person>
    <person id="p157" depart="679">
        <ride from="25593376#3" to="-25415039#3" lines="taxi"/>
    </person>
    <person id="p158" depart="684">
        <ride from="28124696#0" to="-25415039#3" lines="taxi"/>
    </person>
    <person id="p159" depart="689">
        <ride from="1189365209" to="-25415039#3" lines="taxi"/>
    </person>
    <person id="p160" depart="691">
        <ride from="-60702646" to="-25415039#3" lines="taxi"/>
    </person>
    <person id="p161" depart="693">
        <ride from="1361425836#1" to="-25415039#3" lines="taxi"/>
    </person>
    <person id="p162" depart="713">
        <ride from="-1022042157#2" to="-25415039#3" lines="taxi"/>
    </person>
    <person id="p163" depart="721">
        <ride from="-674298787#0" to="-25415039#3" lines="taxi"/>
    </person>
    <person id="p164" depart="724">
        <ride from="-25415038#4" to="-25415039#3" lines="taxi"/>
    </person>
    <person id="p165" depart="724">
        <ride from="1361425836#1" to="-25415039#3" lines="taxi"/>
    </person>
    <person id="p166" depart="730">
        <ride from="28725589" to="-25415039#3" lines="taxi"/>
    </person>
    <person id="p167" depart="733">
        <ride from="-32091203#2" to="-25415039#3" lines="taxi"/>
    </person>
    <person id="p168" depart="737">
        <ride from="37996159#1" to="-25415039#3" lines="taxi"/>
    </person>
    <person id="p169" depart="745">
        <ride from="28124693#0" to="-25415039#3" lines="taxi"/>
    </person>
    <person id="p170" depart="758">
        <ride from="-25593394#0" to="-25415039#3" lines="taxi"/>
    </person>
    <person id="p171" depart="764">
        <ride from="24996585#0" to="-25415039#3" lines="taxi"/>
    </person>
    <person id="p172" depart="764">
        <ride from="28725589" to="-25415039#3" lines="taxi"/>
    </person>
    <person id="p173" depart="765">
        <ride from="-38128299#1" to="-25415039#3" lines="taxi"/>
    </person>
    <person id="p174" depart="770">
        <ride from="1189365209" to="-25415039#3" lines="taxi"/>
    </person>
    <person id="p175" depart="770">
        <ride from="-25727611#1" to="-25415039#3" lines="taxi"/>
    </person>
    <person id="p176" depart="771">
        <ride from="-674298787#0" to="-25415039#3" lines="taxi"/>
    </person>
    <person id="p177" depart="775">
        <ride from="-75902756#1" to="-25415039#3" lines="taxi"/>
    </person>
    <person id="p178" depart="781">
        <ride from="1215949438" to="-25415039#3" lines="taxi"/>
    </person>
    <person id="p179" depart="781">
        <ride from="-253010733#1" to="-25415039#3" lines="taxi"/>
    </person>
    <person id="p180" depart="783">
        <ride from="-238136477" to="-25415039#3" lines="taxi"/>
    </person>
    <person id="p181" depart="787">
        <ride from="44443593#2" to="-25415039#3" lines="taxi"/>
    </person>
    <person id="p182" depart="790">
        <ride from="24996585#0" to="-25415039#3" lines="taxi"/>
    </person>
    <person id="p183" depart="796">
        <ride from="-75902756#1" to="-25415039#3" lines="taxi"/>
    </person>
    <person id="p184" depart="810">
        <ride from="1215949438" to="-25415039#3" lines="taxi"/>
    </person>
    <person id="p185" depart="815">
        <ride from="25790390" to="-25415039#3" lines="taxi"/>
    </person>
    <person id="p186" depart="818">
        <ride from="25593376#3" to="-25415039#3" lines="taxi"/>
    </person>
    <person id="p187" depart="829">
        <ride from="28140027#0" to="-25415039#3" lines="taxi"/>
    </person>
    <person id="p188" depart="839">
        <ride from="-28132131" to="-25415039#3" lines="taxi"/>
    </person>
    <person id="p189" depart="840">
        <ride from="25939498#3" to="-25415039#3" lines="taxi"/>
    </person>
    <person id="p190" depart="844">
        <ride from="-25593394#0" to="-25415039#3" lines="taxi"/>
    </person>
    <person id="p191" depart="848">
        <ride from="44443593#2" to="-25415039#3" lines="taxi"/>
    </person>
    <person id="p192" depart="849">
        <ride from="103093870#1" to="-25415039#3" lines="taxi"/>
    </person>
    <person id="p193" depart="851">
        <ride from="-25593394#0" to="-25415039#3" lines="taxi"/>
    </person>
    <person id="p194" depart="862">
        <ride from="-25335407#2" to="-25415039#3" lines="taxi"/>
    </person>
    <person id="p195" depart="867">
        <ride from="37996159#1" to="-25415039#3" lines="taxi"/>
    </person>
    <person id="p196" depart="868">
        <ride from="44642805#0" to="-25415039#3" lines="taxi"/>
    </person>
    <person id="p197" depart="870">
        <ride from="-18784601#1" to="-25415039#3" lines="taxi"/>
    </person>
    <person id="p198" depart="871">
        <ride from="25790390" to="-25415039#3" lines="taxi"/>
    </person>
    <person id="p199" depart="877">
        <ride from="28124696#0" to="-25415039#3" lines="taxi"/>
    </person>
    <person id="p200" depart="877">
        <ride from="238136480#1" to="-25415039#3" lines="taxi"/>
    </person>
    <person id="p201" depart="883">
        <ride from="-674298787#0" to="-25415039#3" lines="taxi"/>
    </person>
    <person id="p202" depart="888">
        <ride from="-38128299#1" to="-25415039#3" lines="taxi"/>
    </person>
    <person id="p203" depart="891">
        <ride from="-252947536#1" to="-25415039#3" lines="taxi"/>
    </person>
    <person id="p204" depart="897">
        <ride from="25790390" to="-25415039#3" lines="taxi"/>
    </person>
    <person id="p205" depart="901">
        <ride from="-252947536#1" to="-25415039#3" lines="taxi"/>
    </person>
    <person id="p206" depart="901">
        <ride from="28727437#1" to="-25415039#3" lines="taxi"/>
    </person>
    <person id="p207" depart="904">
        <ride from="-28132132#0" to="-25415039#3" lines="taxi"/>
    </person>
    <person id="p208" depart="911">
        <ride from="1059785584#0" to="-25415039#3" lines="taxi"/>
    </person>
    <person id="p209" depart="912">
        <ride from="37996159#1" to="-25415039#3" lines="taxi"/>
    </person>
    <person id="p210" depart="922">
        <ride from="-28132131" to="-25415039#3" lines="taxi"/>
    </person>
    <person id="p211" depart="923">
        <ride from="25593376#3" to="-25415039#3" lines="taxi"/>
    </person>
    <person id="p212" depart="925">
        <ride from="-1022042157#2" to="-25415039#3" lines="taxi"/>
    </person>
    <person id="p213" depart="938">
        <ride from="-25335407#2" to="-25415039#3" lines="taxi"/>
    </person>
    <person id="p214" depart="948">
        <ride from="44443593#2" to="-25415039#3" lines="taxi"/>
    </person>
    <person id="p215" depart="952">
        <ride from="-253010733#1" to="-25415039#3" lines="taxi"/>
    </person>
    <person id="p216" depart="954">
        <ride from="289937319" to="-25415039#3" lines="taxi"/>
    </person>
    <person id="p217" depart="956">
        <ride from="67624333" to="-25415039#3" lines="taxi"/>
    </person>
    <person id="p218" depart="958">
        <ride from="-38128299#1" to="-25415039#3" lines="taxi"/>
    </person>
    <person id="p219" depart="961">
        <ride from="28725589" to="-25415039#3" lines="taxi"/>
    </person>
    <person id="p220" depart="962">
        <ride from="-253010733#1" to="-25415039#3" lines="taxi"/>
    </person>
    <person id="p221" depart="967">
        <ride from="-238136477" to="-25415039#3" lines="taxi"/>
    </person>
    <person id="p222" depart="971">
        <ride from="-25790384" to="-25415039#3" lines="taxi"/>
    </person>
    <person id="p223" depart="975">
        <ride from="-253010733#1" to="-25415039#3" lines="taxi"/>
    </person>
    <person id="p224" depart="978">
        <ride from="-25415038#4" to="-25415039#3" lines="taxi"/>
    </person>
    <person id="p225" depart="979">
        <ride from="1059785584#0" to="-25415039#3" lines="taxi"/>
    </person>
    <person id="p226" depart="979">
        <ride from="132619396#0" to="-25415039#3" lines="taxi"/>
    </person>
    <person id="p227" depart="983">
        <ride from="-252947536#1" to="-25415039#3" lines="taxi"/>
    </person>
    <person id="p228" depart="992">
        <ride from="132619396#0" to="-25415039#3" lines="taxi"/>
    </person>
    <person id="p229" depart="995">
        <ride from="25593376#3" to="-25415039#3" lines="taxi"/>
    </person>
    <person id="p230" depart="996">
        <ride from="24996585#0" to="-25415039#3" lines="taxi"/>
    </person>
    <person id="p231" depart="999">
        <ride from="-38128295#0" to="-25415039#3" lines="taxi"/>
    </person>
    <person id="p232" depart="1002">
        <ride from="-25727611#1" to="-25415039#3" lines="taxi"/>
    </person>
    <person id="p233" depart="1003">
        <ride from="-37996558#1" to="-25415039#3" lines="taxi"/>
    </person>
    <person id="p234" depart="1004">
        <ride from="-742449277#0" to="-25415039#3" lines="taxi"/>
    </person>
    <person id="p235" depart="1016">
        <ride from="44642805#0" to="-25415039#3" lines="taxi"/>
    </person>
    <person id="p236" depart="1028">
        <ride from="1361425836#1" to="-25415039#3" lines="taxi"/>
    </person>
    <person id="p237" depart="1030">
        <ride from="-661814892" to="-25415039#3" lines="taxi"/>
    </person>
    <person id="p238" depart="1034">
        <ride from="1361425836#1" to="-25415039#3" lines="taxi"/>
    </person>
    <person id="p239" depart="1037">
        <ride from="-238136477" to="-25415039#3" lines="taxi"/>
    </person>
    <person id="p240" depart="1043">
        <ride from="-674298787#0" to="-25415039#3" lines="taxi"/>
    </person>
    <person id="p241" depart="1044">
        <ride from="1361425836#1" to="-25415039#3" lines="taxi"/>
    </person>
    <person id="p242" depart="1049">
        <ride from="1021479206#5" to="-25415039#3" lines="taxi"/>
    </person>
    <person id="p243" depart="1053">
        <ride from="28725589" to="-25415039#3" lines="taxi"/>
    </person>
    <person id="p244" depart="1058">
        <ride from="-25593394#0" to="-25415039#3" lines="taxi"/>
    </person>
    <person id="p245" depart="1064">
        <ride from="-193164108#1" to="-25415039#3" lines="taxi"/>
    </person>
    <person id="p246" depart="1065">
        <ride from="-60702646" to="-25415039#3" lines="taxi"/>
    </person>
    <person id="p247" depart="1066">
        <ride from="-28004236" to="-25415039#3" lines="taxi"/>
    </person>
    <person id="p248" depart="1067">
        <ride from="1059785584#0" to="-25415039#3" lines="taxi"/>
    </person>
    <person id="p249" depart="1067">
        <ride from="-25727611#1" to="-25415039#3" lines="taxi"/>
    </person>
    <person id="p250" depart="1068">
        <ride from="103093870#1" to="-25415039#3" lines="taxi"/>
    </person>
    <person id="p251" depart="1068">
        <ride from="289937319" to="-25415039#3" lines="taxi"/>
    </person>
    <person id="p252" depart="1069">
        <ride from="-25807021#2" to="-25415039#3" lines="taxi"/>
    </person>
    <person id="p253" depart="1069">
        <ride from="-252947536#1" to="-25415039#3" lines="taxi"/>
    </person>
    <person id="p254" depart="1083">
        <ride from="1215949438" to="-25415039#3" lines="taxi"/>
    </person>
    <person id="p255" depart="1086">
        <ride from="-32091203#2" to="-25415039#3" lines="taxi"/>
    </person>
    <person id="p256" depart="1092">
        <ride from="-252947536#1" to="-25415039#3" lines="taxi"/>
    </person>
    <person id="p257" depart="1096">
        <ride from="1021479206#5" to="-25415039#3" lines="taxi"/>
    </person>
    <person id="p258" depart="1097">
        <ride from="28124693#0" to="-25415039#3" lines="taxi"/>
    </person>
    <person id="p259" depart="1097">
        <ride from="-253010733#1" to="-25415039#3" lines="taxi"/>
    </person>
    <person id="p260" depart="1103">
        <ride from="28124696#0" to="-25415039#3" lines="taxi"/>
    </person>
    <person id="p261" depart="1105">
        <ride from="132619396#0" to="-25415039#3" lines="taxi"/>
    </person>
    <person id="p262" depart="1110">
        <ride from="67624333" to="-25415039#3" lines="taxi"/>
    </person>
    <person id="p263" depart="1123">