<?xml version="1.0" ?>
<routes>
    <person id="p1" depart="0">
        <ride from="132619396#0" to="-25415039#3" lines="taxi"/>
    </person>
    <person id="p2" depart="3">
        <ride from="238136480#1" to="-25415039#3" lines="taxi"/>
    </person>
    <person id="p3" depart="4">
        <ride from="-25790384" to="-25415039#3" lines="taxi"/>
    </person>
    <person id="p4" depart="4">
        <ride from="-238136477" to="-25415039#3" lines="taxi"/>
    </person>
    <person id="p5" depart="17">
        <ride from="-28132132#0" to="-25415039#3" lines="taxi"/>
    </person>
    <person id="p6" depart="34">
        <ride from="-238136477" to="-25415039#3" lines="taxi"/>
    </person>
    <person id="p7" depart="60">
        <ride from="-60702646" to="-25415039#3" lines="taxi"/>
    </person>
    <person id="p8" depart="61">
        <ride from="-25727611#1" to="-25415039#3" lines="taxi"/>
    </person>
    <person id="p9" depart="67">
        <ride from="132619396#0" to="-25415039#3" lines="taxi"/>
    </person>
    <person id="p10" depart="67">
        <ride from="-28132132#0" to="-25415039#3" lines="taxi"/>
    </person>
    <person id="p11" depart="76">
        <ride from="-661814892" to="-25415039#3" lines="taxi"/>
    </person>
    <person id="p12" depart="87">
        <ride from="28725589" to="-25415039#3" lines="taxi"/>
    </person>
    <person id="p13" depart="91">
        <ride from="28124696#0" to="-25415039#3" lines="taxi"/>
    </person>
    <person id="p14" depart="96">
        <ride from="-18784601#1" to="-25415039#3" lines="taxi"/>
    </person>
    <person id="p15" depart="102">
        <ride from="-38128299#1" to="-25415039#3" lines="taxi"/>
    </person>
    <person id="p16" depart="106">
        <ride from="-193164108#1" to="-25415039#3" lines="taxi"/>
    </person>
    <person id="p17" depart="109">
        <ride from="28124696#0" to="-25415039#3" lines="taxi"/>
    </person>
    <person id="p18" depart="115">
        <ride from="-122259339#5" to="-25415039#3" lines="taxi"/>
    </person>
    <person id="p19" depart="127">
        <ride from="-60702646" to="-25415039#3" lines="taxi"/>
    </person>
    <person id="p20" depart="136">
        <ride from="28727437#1" to="-25415039#3" lines="taxi"/>
    </person>
    <person id="p21" depart="149">
        <ride from="-60702646" to="-25415039#3" lines="taxi"/>
    </person>
    <person id="p22" depart="151">
        <ride from="1215949438" to="-25415039#3" lines="taxi"/>
    </person>
    <person id="p23" depart="153">
        <ride from="268504689#2" to="-25415039#3" lines="taxi"/>
    </person>
    <person id="p24" depart="161">
        <ride from="-193164108#1" to="-25415039#3" lines="taxi"/>
    </person>
    <person id="p25" depart="166">
        <ride from="-32091203#2" to="-25415039#3" lines="taxi"/>
    </person>
    <person id="p26" depart="172">
        <ride from="-1022042157#2" to="-25415039#3" lines="taxi"/>
    </person>
    <person id="p27" depart="178">
        <ride from="238136480#1" to="-25415039#3" lines="taxi"/>
    </person>
    <person id="p28" depart="182">
        <ride from="28124696#0" to="-25415039#3" lines="taxi"/>
    </person>
    <person id="p29" depart="184">
        <ride from="-18784601#1" to="-25415039#3" lines="taxi"/>
    </person>
    <person id="p30" depart="200">
        <ride from="44443593#2" to="-25415039#3" lines="taxi"/>
    </person>
    <person id="p31" depart="208">
        <ride from="-28132131" to="-25415039#3" lines="taxi"/>
    </person>
    <person id="p32" depart="210">
        <ride from="28124696#0" to="-25415039#3" lines="taxi"/>
    </person>
    <person id="p33" depart="212">
        <ride from="25593376#3" to="-25415039#3" lines="taxi"/>
    </person>
    <person id="p34" depart="213">
        <ride from="-28004236" to="-25415039#3" lines="taxi"/>
    </person>
    <person id="p35" depart="218">
        <ride from="-38128299#1" to="-25415039#3" lines="taxi"/>
    </person>
    <person id="p36" depart="219">
        <ride from="-253010733#1" to="-25415039#3" lines="taxi"/>
    </person>
    <person id="p37" depart="225">
        <ride from="-25415038#4" to="-25415039#3" lines="taxi"/>
    </person>
    <person id="p38" depart="229">
        <ride from="-28132131" to="-25415039#3" lines="taxi"/>
    </person>
    <person id="p39" depart="233">
        <ride from="-193164108#1" to="-25415039#3" lines="taxi"/>
    </person>
    <person id="p40" depart="236">
        <ride from="-661814892" to="-25415039#3" lines="taxi"/>
    </person>
    <person id="p41" depart="238">
        <ride from="-661814892" to="-25415039#3" lines="taxi"/>
    </person>
    <person id="p42" depart="241">
        <ride from="103093870#1" to="-25415039#3" lines="taxi"/>
    </person>
    <person id="p43" depart="241">
        <ride from="-253010733#1" to="-25415039#3" lines="taxi"/>
    </person>
    <person id="p44" depart="245">
        <ride from="-193164108#1" to="-25415039#3" lines="taxi"/>
    </person>
    <person id="p45" depart="248">
        <ride from="-742449277#0" to="-25415039#3" lines="taxi"/>
    </person>
    <person id="p46" depart="256">
        <ride from="44443593#2" to="-25415039#3" lines="taxi"/>
    </person>
    <person id="p47" depart="264">
        <ride from="-60702646" to="-25415039#3" lines="taxi"/>
    </person>
    <person id="p48" depart="265">
        <ride from="44443593#2" to="-25415039#3" lines="taxi"/>
    </person>
    <person id="p49" depart="267">
        <ride from="-25335407#2" to="-25415039#3" lines="taxi"/>
    </person>
    <person id="p50" depart="267">
        <ride from="-238136477" to="-25415039#3" lines="taxi"/>
    </person>
    <person id="p51" depart="268">
        <ride from="289937319" to="-25415039#3" lines="taxi"/>
    </person>
    <person id="p52" depart="284">
        <ride from="-18784601#1" to="-25415039#3" lines="taxi"/>
    </person>
    <person id="p53" depart="289">
        <ride from="-25727611#1" to="-25415039#3" lines="taxi"/>
    </person>
    <person id="p54" depart="291">
        <ride from="37996159#1" to="-25415039#3" lines="taxi"/>
    </person>
    <person id="p55" depart="291">
        <ride from="-25790384" to="-25415039#3" lines="taxi"/>
    </person>
    <person id="p56" depart="303">
        <ride from="-25807021#2" to="-25415039#3" lines="taxi"/>
    </person>
    <person id="p57" depart="307">
        <ride from="-25593394#0" to="-25415039#3" lines="taxi"/>
    </person>
    <person id="p58" depart="312">
        <ride from="-25727611#1" to="-25415039#3" lines="taxi"/>
    </person>
    <person id="p59" depart="314">
        <ride from="238136480#1" to="-25415039#3" lines="taxi"/>
    </person>
    <person id="p60" depart="314">
        <ride from="25939498#3" to="-25415039#3" lines="taxi"/>
    </person>
    <person id="p61" depart="315">
        <ride from="-252947536#1" to="-25415039#3" lines="taxi"/>
    </person>
    <person id="p62" depart="317">
        <ride from="-1022042157#2" to="-25415039#3" lines="taxi"/>
    </person>
    <person id="p63" depart="322">
        <ride from="1021479206#5" to="-25415039#3" lines="taxi"/>
    </person>
    <person id="p64" depart="326">
        <ride from="1059785584#0" to="-25415039#3" lines="taxi"/>
    </person>
    <person id="p65" depart="328">
        <ride from="1021479206#5" to="-25415039#3" lines="taxi"/>
    </person>
    <person id="p66" depart="330">
        <ride from="-60702646" to="-25415039#3" lines="taxi"/>
    </person>
    <person id="p67" depart="330">
        <ride from="44642805#0" to="-25415039#3" lines="taxi"/>
    </person>
    <person id="p68" depart="336">
        <ride from="-25335407#2" to="-25415039#3" lines="taxi"/>
    </person>
    <person id="p69" depart="339">
        <ride from="37996159#1" to="-25415039#3" lines="taxi"/>
    </person>
    <person id="p70" depart="340">
        <ride from="-38128299#1" to="-25415039#3" lines="taxi"/>
    </person>
    <person id="p71" depart="345">
        <ride from="26668849#2" to="-25415039#3" lines="taxi"/>
    </person>
    <person id="p72" depart="346">
        <ride from="289937319" to="-25415039#3" lines="taxi"/>
    </person>
    <person id="p73" depart="350">
        <ride from="-28132131" to="-25415039#3" lines="taxi"/>
    </person>
    <person id="p74" depart="350">
        <ride from="28140027#0" to="-25415039#3" lines="taxi"/>
    </person>
    <person id="p75" depart="364">
        <ride from="-37996558#1" to="-25415039#3" lines="taxi"/>
    </person>
    <person id="p76" depart="369">
        <ride from="-742449277#0" to="-25415039#3" lines="taxi"/>
    </person>
    <person id="p77" depart="374">
        <ride from="-32091203#2" to="-25415039#3" lines="taxi"/>
    </person>
    <person id="p78" depart="376">
        <ride from="-661814892" to="-25415039#3" lines="taxi"/>
    </person>
    <person id="p79" depart="381">
        <ride from="268504689#2" to="-25415039#3" lines="taxi"/>
    </person>
    <person id="p80" depart="393">
        <ride from="1215949438" to="-25415039#3" lines="taxi"/>
    </person>
    <person id="p81" depart="397">
        <ride from="-25415038#4" to="-25415039#3" lines="taxi"/>
    </person>
    <person id="p82" depart="414">
        <ride from="26668849#2" to="-25415039#3" lines="taxi"/>
    </person>
    <person id="p83" depart="414">
        <ride from="-38128299#1" to="-25415039#3" lines="taxi"/>
    </person>
    <person id="p84" depart="414">
        <ride from="1189365209" to="-25415039#3" lines="taxi"/>
    </person>
    <person id="p85" depart="417">
        <ride from="-253010733#1" to="-25415039#3" lines="taxi"/>
    </person>
    <person id="p86" depart="425">
        <ride from="1021479206#5" to="-25415039#3" lines="taxi"/>
    </person>
    <person id="p87" depart="429">
        <ride from="-661814892" to="-25415039#3" lines="taxi"/>
    </person>
    <person id="p88" depart="430">
        <ride from="-38128295#0" to="-25415039#3" lines="taxi"/>
    </person>
    <person id="p89" depart="432">
        <ride from="-38128299#1" to="-25415039#3" lines="taxi"/>
    </person>
    <person id="p90" depart="436">
        <ride from="26668849#2" to="-25415039#3" lines="taxi"/>
    </person>
    <person id="p91" depart="449">
        <ride from="1215949438" to="-25415039#3" lines="taxi"/>
    </person>
    <person id="p92" depart="453">
        <ride from="-742449277#0" to="-25415039#3" lines="taxi"/>
    </person>
    <person id="p93" depart="457">
        <ride from="44642805#0" to="-25415039#3" lines="taxi"/>
    </person>
    <person id="p94" depart="468">
        <ride from="1189365209" to="-25415039#3" lines="taxi"/>
    </person>
    <person id="p95" depart="472">
        <ride from="37996159#1" to="-25415039#3" lines="taxi"/>
    </person>
    <person id="p96" depart="473">
        <ride from="28725589" to="-25415039#3" lines="taxi"/>
    </person>
    <person id="p97" depart="475">
        <ride from="1059785584#0" to="-25415039#3" lines="taxi"/>
    </person>
    <person id="p98" depart="490">
        <ride from="-28132132#0" to="-25415039#3" lines="taxi"/>
    </person>
    <person id="p99" depart="492">
        <ride from="238136480#1" to="-25415039#3" lines="taxi"/>
    </person>
    <person id="p100" depart="494">
        <ride from="37996159#1" to="-25415039#3" lines="taxi"/>
    </person>
    <person id="p101" depart="508">
        <ride from="-253010733#1" to="-25415039#3" lines="taxi"/>
    </person>
    <person id="p102" depart="522">
        <ride from="-25335407#2" to="-25415039#3" lines="taxi"/>
    </person>
    <person id="p103" depart="543">
        <ride from="-661814892" to="-25415039#3" lines="taxi"/>
    </person>
    <person id="p104" depart="547">
        <ride from="44443593#2" to="-25415039#3" lines="taxi"/>
    </person>
    <person id="p105" depart="547">
        <ride from="-28004236" to="-25415039#3" lines="taxi"/>
    </person>
    <person id="p106" depart="548">
        <ride from="-75902756#1" to="-25415039#3" lines="taxi"/>
    </person>
    <person id="p107" depart="560">
        <ride from="-18784601#1" to="-25415039#3" lines="taxi"/>
    </person>
    <person id="p108" depart="562">
        <ride from="-25415038#4" to="-25415039#3" lines="taxi"/>
    </person>
    <person id="p109" depart="565">
        <ride from="-25727611#1" to="-25415039#3" lines="taxi"/>
    </person>
    <person id="p110" depart="578">
        <ride from="268504689#2" to="-25415039#3" lines="taxi"/>
    </person>
    <person id="p111" depart="581">
        <ride from="44642805#0" to="-25415039#3" lines="taxi"/>
    </person>
    <person id="p112" depart="592">
        <ride from="-75902756#1" to="-25415039#3" lines="taxi"/>
    </person>
    <person id="p113" depart="597">
        <ride from="37996159#1" to="-25415039#3" lines="taxi"/>
    </person>
    <person id="p114" depart="602">
        <ride from="1361425836#1" to="-25415039#3" lines="taxi"/>
    </person>
    <person id="p115" depart="610">
        <ride from="-28132131" to="-25415039#3" lines="taxi"/>
    </person>
    <person id="p116" depart="623">
        <ride from="-25415038#4" to="-25415039#3" lines="taxi"/>
    </person>
    <person id="p117" depart="631">
        <ride from="-253010733#1" to="-25415039#3" lines="taxi"/>
    </person>
    <person id="p118" depart="635">
        <ride from="-25415038#4" to="-25415039#3" lines="taxi"/>
    </person>
    <person id="p119" depart="638">
        <ride from="-25593394#0" to="-25415039#3" lines="taxi"/>
    </person>
    <person id="p120" depart="662">
        <ride from="132619396#0" to="-25415039#3" lines="taxi"/>
    </person>
    <person id="p121" depart="665">
        <ride from="-32091203#2" to="-25415039#3" lines="taxi"/>
    </person>
    <person id="p122" depart="666">
        <ride from="67624333" to="-25415039#3" lines="taxi"/>
    </person>
    <person id="p123" depart="667">
        <ride from="28725589" to="-25415039#3" lines="taxi"/>
    </person>
    <person id="p124" depart="671">
        <ride from="-25727611#1" to="-25415039#3" lines="taxi"/>
    </person>
    <person id="p125" depart="677">
        <ride from="37996159#1" to="-25415039#3" lines="taxi"/>
    </person>
    <person id="p126" depart="679">
        <ride from="28124696#0" to="-25415039#3" lines="taxi"/>
    </person>
    <person id="p127" depart="682">
        <ride from="44642805#0" to="-25415039#3" lines="taxi"/>
    </person>
    <person id="p128" depart="689">
        <ride from="-25335407#2" to="-25415039#3" lines="taxi"/>
    </person>
    <person id="p129" depart="693">
        <ride from="28124696#0" to="-25415039#3" lines="taxi"/>
    </person>
    <person id="p130" depart="696">
        <ride from="-38128299#1" to="-25415039#3" lines="taxi"/>
    </person>
    <person id="p131" depart="697">
        <ride from="132619396#0" to="-25415039#3" lines="taxi"/>
    </person>
    <person id="p132" depart="711">
        <ride from="24996585#0" to="-25415039#3" lines="taxi"/>
    </person>
    <person id="p133" depart="729">
        <ride from="-253010733#1" to="-25415039#3" lines="taxi"/>
    </person>
    <person id="p134" depart="738">
        <ride from="-25727611#1" to="-25415039#3" lines="taxi"/>
    </person>
    <person id="p135" depart="739">
        <ride from="-38128299#1" to="-25415039#3" lines="taxi"/>
    </person>
    <person id="p136" depart="739">
        <ride from="26668849#2" to="-25415039#3" lines="taxi"/>
    </person>
    <person id="p137" depart="795">
        <ride from="132619396#0" to="-25415039#3" lines="taxi"/>
    </person>
    <person id="p138" depart="804">
        <ride from="44443593#2" to="-25415039#3" lines="taxi"/>
    </person>
    <person id="p139" depart="805">
        <ride from="-25415038#4" to="-25415039#3" lines="taxi"/>
    </person>
    <person id="p140" depart="805">
        <ride from="44443593#2" to="-25415039#3" lines="taxi"/>
    </person>
    <person id="p141" depart="805">
        <ride from="1215949438" to="-25415039#3" lines="taxi"/>
    </person>
    <person id="p142" depart="816">
        <ride from="-28132131" to="-25415039#3" lines="taxi"/>
    </person>
    <person id="p143" depart="835">
        <ride from="28140027#0" to="-25415039#3" lines="taxi"/>
    </person>
    <person id="p144" depart="839">
        <ride from="28140027#0" to="-25415039#3" lines="taxi"/>
    </person>
    <person id="p145" depart="846">
        <ride from="-25415038#4" to="-25415039#3" lines="taxi"/>
    </person>
    <person id="p146" depart="849">
        <ride from="-28132132#0" to="-25415039#3" lines="taxi"/>
    </person>
    <person id="p147" depart="849">
        <ride from="132619396#0" to="-25415039#3" lines="taxi"/>
    </person>
    <person id="p148" depart="851">
        <ride from="-38128299#1" to="-25415039#3" lines="taxi"/>
    </person>
    <person id="p149" depart="851">
        <ride from="1059785584#0" to="-25415039#3" lines="taxi"/>
    </person>
    <person id="p150" depart="860">
        <ride from="67624333" to="-25415039#3" lines="taxi"/>
    </person>
    <person id="p151" depart="862">
        <ride from="-28132132#0" to="-25415039#3" lines="taxi"/>
    </person>
    <person id="p152" depart="863">
        <ride from="-28132132#0" to="-25415039#3" lines="taxi"/>
    </person>
    <person id="p153" depart="864">
        <ride from="-252947536#1" to="-25415039#3" lines="taxi"/>
    </person>
    <person id="p154" depart="871">
        <ride from="28725589" to="-25415039#3" lines="taxi"/>
    </person>
    <person id="p155" depart="873">
        <ride from="132619396#0" to="-25415039#3" lines="taxi"/>
    </person>
    <person id="p156" depart="877">
        <ride from="28747054#0" to="-25415039#3" lines="taxi"/>
    </person>
    <person id="p157" depart="881">
        <ride from="-252947536#1" to="-25415039#3" lines="taxi"/>
    </person>
    <person id="p158" depart="884">
        <ride from="1361425836#1" to="-25415039#3" lines="taxi"/>
    </person>
    <person id="p159" depart="898">
        <ride from="-32091203#2" to="-25415039#3" lines="taxi"/>
    </person>
    <person id="p160" depart="900">
        <ride from="25939498#3" to="-25415039#3" lines="taxi"/>
    </person>
    <person id="p161" depart="907">
        <ride from="289937319" to="-25415039#3" lines="taxi"/>
    </person>
    <person id="p162" depart="909">
        <ride from="28140027#0" to="-25415039#3" lines="taxi"/>
    </person>
    <person id="p163" depart="919">
        <ride from="238136480#1" to="-25415039#3" lines="taxi"/>
    </person>
    <person id="p164" depart="921">
        <ride from="28727437#1" to="-25415039#3" lines="taxi"/>
    </person>
    <person id="p165" depart="929">
        <ride from="-25593394#0" to="-25415039#3" lines="taxi"/>
    </person>
    <person id="p166" depart="936">
        <ride from="-661814892" to="-25415039#3" lines="taxi"/>
    </person>
    <person id="p167" depart="942">
        <ride from="44443593#2" to="-25415039#3" lines="taxi"/>
    </person>
    <person id="p168" depart="943">
        <ride from="-25807021#2" to="-25415039#3" lines="taxi"/>
    </person>
    <person id="p169" depart="950">
        <ride from="-252947536#1" to="-25415039#3" lines="taxi"/>
    </person>
    <person id="p170" depart="952">
        <ride from="103093870#1" to="-25415039#3" lines="taxi"/>
    </person>
    <person id="p171" depart="955">
        <ride from="-25790384" to="-25415039#3" lines="taxi"/>
    </person>
    <person id="p172" depart="956">
        <ride from="67624333" to="-25415039#3" lines="taxi"/>
    </person>
    <person id="p173" depart="960">
        <ride from="289937319" to="-25415039#3" lines="taxi"/>
    </person>
    <person id="p174" depart="965">
        <ride from="-253010733#1" to="-25415039#3" lines="taxi"/>
    </person>
    <person id="p175" depart="974">
        <ride from="-60702646" to="-25415039#3" lines="taxi"/>
    </person>
    <person id="p176" depart="976">
        <ride from="26668849#2" to="-25415039#3" lines="taxi"/>
    </person>
    <person id="p177" depart="981">
        <ride from="25790390" to="-25415039#3" lines="taxi"/>
    </person>
    <person id="p178" depart="990">
        <ride from="44642805#0" to="-25415039#3" lines="taxi"/>
    </person>
    <person id="p179" depart="1018">
        <ride from="28725589" to="-25415039#3" lines="taxi"/>
    </person>
    <person id="p180" depart="1018">
        <ride from="1215949438" to="-25415039#3" lines="taxi"/>
    </person>
    <person id="p181" depart="1023">
        <ride from="1021479206#5" to="-25415039#3" lines="taxi"/>
    </person>
    <person id="p182" depart="1034">
        <ride from="-60702646" to="-25415039#3" lines="taxi"/>
    </person>
    <person id="p183" depart="1036">
        <ride from="-1022042157#2" to="-25415039#3" lines="taxi"/>
    </person>
    <person id="p184" depart="1047">
        <ride from="-38128295#0" to="-25415039#3" lines="taxi"/>
    </person>
    <person id="p185" depart="1050">
        <ride from="28140027#0" to="-25415039#3" lines="taxi"/>
    </person>
    <person id="p186" depart="1052">
        <ride from="-122259339#5" to="-25415039#3" lines="taxi"/>
    </person>
    <person id="p187" depart="1073">
        <ride from="-25335407#2" to="-25415039#3" lines="taxi"/>
    </person>
    <person id="p188" depart="1078">
        <ride from="238136480#1" to="-25415039#3" lines="taxi"/>
    </person>
    <person id="p189" depart="1086">
        <ride from="-60702646" to="-25415039#3" lines="taxi"/>
    </person>
    <person id="p190" depart="1089">
        <ride from="-25807021#2" to="-25415039#3" lines="taxi"/>
    </person>
    <person id="p191" depart="1092">
        <ride from="28124693#0" to="-25415039#3" lines="taxi"/>
    </person>
    <person id="p192" depart="1092">
        <ride from="-25335407#2" to="-25415039#3" lines="taxi"/>
    </person>
    <person id="p193" depart="1097">
        <ride from="25593376#3" to="-25415039#3" lines="taxi"/>
    </person>
    <person id="p194" depart="1107">
        <ride from="1021479206#5" to="-25415039#3" lines="taxi"/>
    </person>
    <person id="p195" depart="1111">
        <ride from="1059785584#0" to="-25415039#3" lines="taxi"/>
    </person>
    <person id="p196" depart="1113">
        <ride from="289937319" to="-25415039#3" lines="taxi"/>
    </person>
    <person id="p197" depart="1123">
        <ride from="268504689#2" to="-25415039#3" lines="taxi"/>
    </person>
    <person id="p198" depart="1127">
        <ride from="1059785584#0" to="-25415039#3" lines="taxi"/>
    </person>
    <person id="p199" depart="1131">
        <ride from="28124693#0" to="-25415039#3" lines="taxi"/>
    </person>
    <person id="p200" depart="1138">
        <ride from="-38128299#1" to="-25415039#3" lines="taxi"/>
    </person>
    <person id="p201" depart="1139">
        <ride from="67624333" to="-25415039#3" lines="taxi"/>
    </person>
    <person id="p202" depart="1139">
        <ride from="1021479206#5" to="-25415039#3" lines="taxi"/>
    </person>
    <person id="p203" depart="1140">
        <ride from="-252947536#1" to="-25415039#3" lines="taxi"/>
    </person>
    <person id="p204" depart="1142">
        <ride from="-37996558#1" to="-25415039#3" lines="taxi"/>
    </person>
    <person id="p205" depart="1143">
        <ride from="67624333" to="-25415039#3" lines="taxi"/>
    </person>
    <person id="p206" depart="1145">
        <ride from="-252947536#1" to="-25415039#3" lines="taxi"/>
    </person>
    <person id="p207" depart="1149">
        <ride from="-25727611#1" to="-25415039#3" lines="taxi"/>
    </person>
    <person id="p208" depart="1153">
        <ride from="44642805#0" to="-25415039#3" lines="taxi"/>
    </person>
    <person id="p209" depart="1160">
        <ride from="24996585#0" to="-25415039#3" lines="taxi"/>
    </person>
    <person id="p210" depart="1170">
        <ride from="-28132131" to="-25415039#3" lines="taxi"/>
    </person>
    <person id="p211" depart="1172">
        <ride from="44443593#2" to="-25415039#3" lines="taxi"/>
    </person>
    <person id="p212" depart="1174">
        <ride from="28725589" to="-25415039#3" lines="taxi"/>
    </person>
    <person id="p213" depart="1178">
        <ride from="268504689#2" to="-25415039#3" lines="taxi"/>
    </person>
    <person id="p214" depart="1179">
        <ride from="-37996558#1" to="-25415039#3" lines="taxi"/>
    </person>
    <person id="p215" depart="1182">
        <ride from="-25790384" to="-25415039#3" lines="taxi"/>
    </person>
    <person id="p216" depart="1194">
        <ride from="28747054#0" to="-25415039#3" lines="taxi"/>
    </person>
    <person id="p217" depart="1195">
        <ride from="268504689#2" to="-25415039#3" lines="taxi"/>
    </person>
    <person id="p218" depart="1202">
        <ride from="1361425836#1" to="-25415039#3" lines="taxi"/>
    </person>
    <person id="p219" depart="1216">
        <ride from="-674298787#0" to="-25415039#3" lines="taxi"/>
    </person>
    <person id="p220" depart="1219">
        <ride from="28140027#0" to="-25415039#3" lines="taxi"/>
    </person>
    <person id="p221" depart="1219">
        <ride from="-253010733#1" to="-25415039#3" lines="taxi"/>
    </person>
    <person id="p222" depart="1221">
        <ride from="1189365209" to="-25415039#3" lines="taxi"/>
    </person>
    <person id="p223" depart="1241">
        <ride from="-193164108#1" to="-25415039#3" lines="taxi"/>
    </person>
    <person id="p224" depart="1245">
        <ride from="26668849#2" to="-25415039#3" lines="taxi"/>
    </person>
    <person id="p225" depart="1256">
        <ride from="-37996558#1" to="-25415039#3" lines="taxi"/>
    </person>
    <person id="p226" depart="1260">
        <ride from="-25807021#2" to="-25415039#3" lines="taxi"/>
    </person>
    <person id="p227" depart="1262">
        <ride from="-25727611#1" to="-25415039#3" lines="taxi"/>
    </person>
    <person id="p228" depart="1266">
        <ride from="1361425836#1" to="-25415039#3" lines="taxi"/>
    </person>
    <person id="p229" depart="1267">
        <ride from="-28132131" to="-25415039#3" lines="taxi"/>
    </person>
    <person id="p230" depart="1274">
        <ride from="-60702646" to="-25415039#3" lines="taxi"/>
    </person>
    <person id="p231" depart="1284">
        <ride from="-18784601#1" to="-25415039#3" lines="taxi"/>
    </person>
    <person id="p232" depart="1286">
        <ride from="-28132131" to="-25415039#3" lines="taxi"/>
    </person>
    <person id="p233" depart="1286">
        <ride from="1021479206#5" to="-25415039#3" lines="taxi"/>
    </person>
    <person id="p234" depart="1293">
        <ride from="1215949438" to="-25415039#3" lines="taxi"/>
    </person>
    <person id="p235" depart="1295">
        <ride from="-25727611#1" to="-25415039#3" lines="taxi"/>
    </person>
    <person id="p236" depart="1306">
        <ride from="25790390" to="-25415039#3" lines="taxi"/>
    </person>
    <person id="p237" depart="1306">
        <ride from="-661814892" to="-25415039#3" lines="taxi"/>
    </person>
    <person id="p238" depart="1307">
        <ride from="-25727611#1" to="-25415039#3" lines="taxi"/>
    </person>
    <person id="p239" depart="1318">
        <ride from="-25727611#1" to="-25415039#3" lines="taxi"/>
    </person>
    <person id="p240" depart="1324">
        <ride from="103093870#1" to="-25415039#3" lines="taxi"/>
    </person>
    <person id="p241" depart="1329">
        <ride from="-193164108#1" to="-25415039#3" lines="taxi"/>
    </person>
    <person id="p242" depart="1332">
        <ride from="-38128295#0" to="-25415039#3" lines="taxi"/>
    </person>
    <person id="p243" depart="1333">
        <ride from="-122259339#5" to="-25415039#3" lines="taxi"/>
    </person>
    <person id="p244" depart="1339">
        <ride from="1189365209" to="-25415039#3" lines="taxi"/>
    </person>
    <person id="p245" depart="1342">
        <ride from="44443593#2" to="-25415039#3" lines="taxi"/>
    </person>
    <person id="p246" depart="1375">
        <ride from="1189365209" to="-25415039#3" lines="taxi"/>
    </person>
    <person id="p247" depart="1375">
        <ride from="-38128295#0" to="-25415039#3" lines="taxi"/>
    </person>
    <person id="p248" depart="1384">
        <ride from="-28004236" to="-25415039#3" lines="taxi"/>
    </person>
    <person id="p249" depart="1388">
        <ride from="-25593394#0" to="-25415039#3" lines="taxi"/>
    </person>
    <person id="p250" depart="1393">
        <ride from="-25593394#0" to="-25415039#3" lines="taxi"/>
    </person>
    <person id="p251" depart="1405">
        <ride from="-25415038#4" to="-25415039#3" lines="taxi"/>
    </person>
    <person id="p252" depart="1411">
        <ride from="1059785584#0" to="-25415039#3" lines="taxi"/>
    </person>
    <person id="p253" depart="1417">
        <ride from="-1022042157#2" to="-25415039#3" lines="taxi"/>
    </person>
    <person id="p254" depart="1417">
        <ride from="25790390" to="-25415039#3" lines="taxi"/>
    </person>
    <person id="p255" depart="1423">
        <ride from="238136480#1" to="-25415039#3" lines="taxi"/>
    </person>
    <person id="p256" depart="1424">
        <ride from="28140027#0" to="-25415039#3" lines="taxi"/>
    </person>
    <person id="p257" depart="1426">
        <ride from="44642805#0" to="-25415039#3" lines="taxi"/>
    </person>
    <person id="p258" depart="1431">
        <ride from="28727437#1" to="-25415039#3" lines="taxi"/>
    </person>
    <person id="p259" depart="1434">
        <ride from="-28132132#0" to="-25415039#3" lines="taxi"/>
    </person>
    <person id="p260" depart="1435">
        <ride from="-28132132#0" to="-25415039#3" lines="taxi"/>
    </person>
    <person id="p261" depart="1435">
        <ride from="-25790384" to="-25415039#3" lines="taxi"/>
    </person>
    <person id="p262" depart="1445">
        <ride from="24996585#0" to="-25415039#3" lines="taxi"/>
    </person>